@<TRIPOS>MOLECULE
C6A
    6    5    1    0    0
SMALL
NO_CHARGES
****
Energy = 0

@<TRIPOS>ATOM
      1 _CH3       -0.0643   -0.0320   -0.0158    C    1  C6A        0.000000
      2 _CH2        1.4757   -0.0320   -0.0158    C    1  C6A        0.000000
      3 _CH2        2.0423    1.2771   -0.5962    C    1  C6A        0.000000
      4 _CH2        3.5823    1.2726   -0.6063    C    1  C6A        0.000000
      5 _CH2        4.1578    1.1288    0.8149    C    1  C6A        0.000000
      6 _CH3        4.8843    2.4322    1.1959    C    1  C6A        0.000000
@<TRIPOS>BOND
    1     1     2  1
    2     2     3  1
    3     3     4  1
    4     4     5  1
    5     5     6  1

@<TRIPOS>SUBSTRUCTURE
1 ****        1 TEMP                        0 ****  **** 0 ROOT

#generated by VMD
