@<TRIPOS>MOLECULE
DME
    3    2    1    0    0
SMALL
NO_CHARGES
****
Energy = 0

@<TRIPOS>ATOM
      1  O         -0.0135   -0.0189    0.0000    O    1  DME        0.000000
      2  _CH3       1.5265   -0.0189    0.0000    C    1  DME        0.000000
      3  _CH3      -0.5149    1.4372   -0.0000    C    1  DME        0.000000
@<TRIPOS>BOND
    1     1     2  1
    2     1     3  1

@<TRIPOS>SUBSTRUCTURE
1 ****        1 TEMP                        0 ****  **** 0 ROOT

#generated by VMD
