@<TRIPOS>MOLECULE
WAT
    3    2    1    0    0
SMALL
NO_CHARGES
****
Energy = 0

@<TRIPOS>ATOM
      1  O          0.0000    0.0001    0.0000    O    1  WAT        0.000000
      2  H          1.0000   -0.0081   -0.0000    H    1  WAT        0.000000
      3  H         -0.3256    0.9456   -0.0000    H    1  WAT        0.000000
@<TRIPOS>BOND
    1     1     2  1
    2     1     3  1

@<TRIPOS>SUBSTRUCTURE
1 ****        1 TEMP                        0 ****  **** 0 ROOT

#generated by VMD
