@<TRIPOS>MOLECULE
ICT
   16   15    1    0    0
SMALL
NO_CHARGES
****
Energy = 0

@<TRIPOS>ATOM
      1  C          4.562     11.601    11.789    C    1  ICT        0.000000
      2  _CH3       5.445     12.516    10.921    C    1  ICT        0.000000
      3  _CH3       5.380     10.414    12.329    C    1  ICT        0.000000
      4  _CH3       3.498     11.040    10.827    C    1  ICT        0.000000
      5  _CH2       4.132     12.460    12.993    C    1  ICT        0.000000
      6  C          2.949     13.425    13.189    C    1  ICT        0.000000
      7  _CH3       3.382     14.736    12.508    C    1  ICT        0.000000
      8  _CH3       1.699     13.007    12.396    C    1  ICT        0.000000
      9  _CH2       2.736     13.562    14.707    C    1  ICT        0.000000
     10  _HC        2.478     12.313    15.571    C    1  ICT        0.000000
     11  _CH3       1.346     12.800    16.494    C    1  ICT        0.000000
     12  _CH2       3.707     11.748    16.306    C    1  ICT        0.000000
     13  C          3.495     10.537    17.233    C    1  ICT        0.000000
     14  _CH3       3.288      9.357    16.265    C    1  ICT        0.000000
     15  _CH3       4.823     10.300    17.976    C    1  ICT        0.000000
     16  _CH3       2.488     10.567    18.398    C    1  ICT        0.000000
@<TRIPOS>BOND
    1     1     2  1
    2     1     3  1
    3     1     4  1
    4     1     5  1
    5     5     6  1
    6     6     7  1
    7     6     8  1
    8     6     9  1
    9     9    10  1
   10    10    11  1
   11    10    12  1
   12    12    13  1
   13    13    14  1
   14    13    15  1
   15    13    16  1

@<TRIPOS>SUBSTRUCTURE
1 ****        1 TEMP                        0 ****  **** 0 ROOT

#generated by VMD
