@<TRIPOS>MOLECULE
NDE
   10    9    1    0    0
SMALL
NO_CHARGES
****
Energy = 0

@<TRIPOS>ATOM
      1  _CH3         0.676     16.151    31.254    C    1  NDE        0.000000
      2  _CH2         1.949     15.292    31.360    C    1  NDE        0.000000
      3  _CH2         2.635     15.617    32.700    C    1  NDE        0.000000
      4  _CH2         3.461     14.454    33.282    C    1  NDE        0.000000
      5  _CH2         3.519     14.593    34.814    C    1  NDE        0.000000
      6  _CH2         3.121     13.320    35.584    C    1  NDE        0.000000
      7  _CH2         4.159     12.213    35.318    C    1  NDE        0.000000
      8  _CH2         3.885     10.759    35.745    C    1  NDE        0.000000
      9  _CH2         5.025      9.798    35.360    C    1  NDE        0.000000
     10  _CH3         4.737      8.286    35.412    C    1  NDE        0.000000
@<TRIPOS>BOND
    1     1     2  1
    2     2     3  1
    3     3     4  1
    4     4     5  1
    5     5     6  1
    6     6     7  1
    7     7     8  1
    8     8     9  1
    9     9    10  1

@<TRIPOS>SUBSTRUCTURE
1 ****        1 TEMP                        0 ****  **** 0 ROOT

#generated by VMD
