@<TRIPOS>MOLECULE
NDO
   12   11    1    0    0
SMALL
NO_CHARGES
****
Energy = 0

@<TRIPOS>ATOM
      1  _CH3         9.798     6.266     4.200     C    1  NDO        0.000000
      2  _CH2         9.458     4.766     4.129     C    1  NDO        0.000000
      3  _CH2        10.286     3.913     5.108     C    1  NDO        0.000000
      4  _CH2         9.901     2.426     5.221     C    1  NDO        0.000000
      5  _CH2         9.831     1.589     3.930     C    1  NDO        0.000000
      6  _CH2        11.178     0.935     3.569     C    1  NDO        0.000000
      7  _CH2        11.143    -0.075     2.407     C    1  NDO        0.000000
      8  _CH2        12.548    -0.224     1.794     C    1  NDO        0.000000
      9  _CH2        12.584    -0.916     0.419     C    1  NDO        0.000000
     10  _CH2        12.429    -2.445     0.318     C    1  NDO        0.000000
     11  _CH2        12.473    -3.105    -1.073     C    1  NDO        0.000000
     12  _CH3        11.440    -2.447    -2.007     C    1  NDO        0.000000
@<TRIPOS>BOND
    1     1     2  1
    2     2     3  1
    3     3     4  1
    4     4     5  1
    5     5     6  1
    6     6     7  1
    7     7     8  1
    8     8     9  1
    9     9    10  1
   10    10    11  1
   11    11    12  1

@<TRIPOS>SUBSTRUCTURE
1 ****        1 TEMP                        0 ****  **** 0 ROOT

#generated by VMD
