@<TRIPOS>MOLECULE
generated by VMD
 3392    0    1    0    0
SMALL
USER_CHARGES
****
Energy = 0

@<TRIPOS>ATOM
      1  _ZN1      5.3340    7.5820    5.3340   ZN    1  MOF        1.333000
      2  _ZN1      5.3340    7.5820   31.1660   ZN    2  MOF        1.333000
      3  _ZN1       5.3340   33.4150    5.3340   ZN    3  MOF        1.333000
      4  _ZN1       5.3340   33.4150   31.1660   ZN    4  MOF        1.333000
      5  _ZN1      31.1660    7.5820    5.3340   ZN    5  MOF        1.333000
      6  _ZN1      31.1660    7.5820   31.1660   ZN    6  MOF        1.333000
      7  _ZN1      31.1660   33.4150    5.3340   ZN    7  MOF        1.333000
      8  _ZN1      31.1660   33.4150   31.1660   ZN    8  MOF        1.333000
      9  _ZN1      20.4990   18.2500   20.4990   ZN    9  MOF        1.333000
     10  _ZN1      20.4990   18.2500   46.3310   ZN   10  MOF        1.333000
     11  _ZN1      20.4990   44.0820   20.4990   ZN   11  MOF        1.333000
     12  _ZN1      20.4990   44.0820   46.3310   ZN   12  MOF        1.333000
     13  _ZN1      46.3310   18.2500   20.4990   ZN   13  MOF        1.333000
     14  _ZN1      46.3310   18.2500   46.3310   ZN   14  MOF        1.333000
     15  _ZN1      46.3310   44.0820   20.4990   ZN   15  MOF        1.333000
     16  _ZN1      46.3310   44.0820   46.3310   ZN   16  MOF        1.333000
     17  _ZN1      20.4990   18.2500    5.3340   ZN   17  MOF        1.333000
     18  _ZN1      20.4990   18.2500   31.1660   ZN   18  MOF        1.333000
     19  _ZN1      20.4990   44.0820    5.3340   ZN   19  MOF        1.333000
     20  _ZN1      20.4990   44.0820   31.1660   ZN   20  MOF        1.333000
     21  _ZN1      46.3310   18.2500    5.3340   ZN   21  MOF        1.333000
     22  _ZN1      46.3310   18.2500   31.1660   ZN   22  MOF        1.333000
     23  _ZN1      46.3310   44.0820    5.3340   ZN   23  MOF        1.333000
     24  _ZN1      46.3310   44.0820   31.1660   ZN   24  MOF        1.333000
     25  _ZN1       5.3340    7.5820   20.4990   ZN   25  MOF        1.333000
     26  _ZN1       5.3340    7.5820   46.3310   ZN   26  MOF        1.333000
     27  _ZN1       5.3340   33.4150   20.4990   ZN   27  MOF        1.333000
     28  _ZN1       5.3340   33.4150   46.3310   ZN   28  MOF        1.333000
     29  _ZN1      31.1660    7.5820   20.4990   ZN   29  MOF        1.333000
     30  _ZN1      31.1660    7.5820   46.3310   ZN   30  MOF        1.333000
     31  _ZN1      31.1660   33.4150   20.4990   ZN   31  MOF        1.333000
     32  _ZN1      31.1660   33.4150   46.3310   ZN   32  MOF        1.333000
     33  _ZN1      20.4990    7.5820   20.4990   ZN   33  MOF        1.333000
     34  _ZN1      20.4990    7.5820   46.3310   ZN   34  MOF        1.333000
     35  _ZN1      20.4990   33.4150   20.4990   ZN   35  MOF        1.333000
     36  _ZN1      20.4990   33.4150   46.3310   ZN   36  MOF        1.333000
     37  _ZN1      46.3310    7.5820   20.4990   ZN   37  MOF        1.333000
     38  _ZN1      46.3310    7.5820   46.3310   ZN   38  MOF        1.333000
     39  _ZN1      46.3310   33.4150   20.4990   ZN   39  MOF        1.333000
     40  _ZN1      46.3310   33.4150   46.3310   ZN   40  MOF        1.333000
     41  _ZN1       5.3340   18.2500    5.3340   ZN   41  MOF        1.333000
     42  _ZN1       5.3340   18.2500   31.1660   ZN   42  MOF        1.333000
     43  _ZN1       5.3340   44.0820    5.3340   ZN   43  MOF        1.333000
     44  _ZN1       5.3340   44.0820   31.1660   ZN   44  MOF        1.333000
     45  _ZN1      31.1660   18.2500    5.3340   ZN   45  MOF        1.333000
     46  _ZN1      31.1660   18.2500   31.1660   ZN   46  MOF        1.333000
     47  _ZN1      31.1660   44.0820    5.3340   ZN   47  MOF        1.333000
     48  _ZN1      31.1660   44.0820   31.1660   ZN   48  MOF        1.333000
     49  _ZN1       5.3340   18.2500   20.4990   ZN   49  MOF        1.333000
     50  _ZN1       5.3340   18.2500   46.3310   ZN   50  MOF        1.333000
     51  _ZN1       5.3340   44.0820   20.4990   ZN   51  MOF        1.333000
     52  _ZN1       5.3340   44.0820   46.3310   ZN   52  MOF        1.333000
     53  _ZN1      31.1660   18.2500   20.4990   ZN   53  MOF        1.333000
     54  _ZN1      31.1660   18.2500   46.3310   ZN   54  MOF        1.333000
     55  _ZN1      31.1660   44.0820   20.4990   ZN   55  MOF        1.333000
     56  _ZN1      31.1660   44.0820   46.3310   ZN   56  MOF        1.333000
     57  _ZN1      20.4990    7.5820    5.3340   ZN   57  MOF        1.333000
     58  _ZN1      20.4990    7.5820   31.1660   ZN   58  MOF        1.333000
     59  _ZN1      20.4990   33.4150    5.3340   ZN   59  MOF        1.333000
     60  _ZN1      20.4990   33.4150   31.1660   ZN   60  MOF        1.333000
     61  _ZN1      46.3310    7.5820    5.3340   ZN   61  MOF        1.333000
     62  _ZN1      46.3310    7.5820   31.1660   ZN   62  MOF        1.333000
     63  _ZN1      46.3310   33.4150    5.3340   ZN   63  MOF        1.333000
     64  _ZN1      46.3310   33.4150   31.1660   ZN   64  MOF        1.333000
     65  _ZN1       5.3340    5.3340    7.5820   ZN   65  MOF        1.333000
     66  _ZN1       5.3340    5.3340   33.4150   ZN   66  MOF        1.333000
     67  _ZN1       5.3340   31.1660    7.5820   ZN   67  MOF        1.333000
     68  _ZN1       5.3340   31.1660   33.4150   ZN   68  MOF        1.333000
     69  _ZN1      31.1660    5.3340    7.5820   ZN   69  MOF        1.333000
     70  _ZN1      31.1660    5.3340   33.4150   ZN   70  MOF        1.333000
     71  _ZN1      31.1660   31.1660    7.5820   ZN   71  MOF        1.333000
     72  _ZN1      31.1660   31.1660   33.4150   ZN   72  MOF        1.333000
     73  _ZN1      20.4990   20.4990   18.2500   ZN   73  MOF        1.333000
     74  _ZN1      20.4990   20.4990   44.0820   ZN   74  MOF        1.333000
     75  _ZN1      20.4990   46.3310   18.2500   ZN   75  MOF        1.333000
     76  _ZN1      20.4990   46.3310   44.0820   ZN   76  MOF        1.333000
     77  _ZN1      46.3310   20.4990   18.2500   ZN   77  MOF        1.333000
     78  _ZN1      46.3310   20.4990   44.0820   ZN   78  MOF        1.333000
     79  _ZN1      46.3310   46.3310   18.2500   ZN   79  MOF        1.333000
     80  _ZN1      46.3310   46.3310   44.0820   ZN   80  MOF        1.333000
     81  _ZN1       5.3340   20.4990   18.2500   ZN   81  MOF        1.333000
     82  _ZN1       5.3340   20.4990   44.0820   ZN   82  MOF        1.333000
     83  _ZN1       5.3340   46.3310   18.2500   ZN   83  MOF        1.333000
     84  _ZN1       5.3340   46.3310   44.0820   ZN   84  MOF        1.333000
     85  _ZN1      31.1660   20.4990   18.2500   ZN   85  MOF        1.333000
     86  _ZN1      31.1660   20.4990   44.0820   ZN   86  MOF        1.333000
     87  _ZN1      31.1660   46.3310   18.2500   ZN   87  MOF        1.333000
     88  _ZN1      31.1660   46.3310   44.0820   ZN   88  MOF        1.333000
     89  _ZN1      20.4990    5.3340    7.5820   ZN   89  MOF        1.333000
     90  _ZN1      20.4990    5.3340   33.4150   ZN   90  MOF        1.333000
     91  _ZN1      20.4990   31.1660    7.5820   ZN   91  MOF        1.333000
     92  _ZN1      20.4990   31.1660   33.4150   ZN   92  MOF        1.333000
     93  _ZN1      46.3310    5.3340    7.5820   ZN   93  MOF        1.333000
     94  _ZN1      46.3310    5.3340   33.4150   ZN   94  MOF        1.333000
     95  _ZN1      46.3310   31.1660    7.5820   ZN   95  MOF        1.333000
     96  _ZN1      46.3310   31.1660   33.4150   ZN   96  MOF        1.333000
     97  _ZN1      20.4990   20.4990    7.5820   ZN   97  MOF        1.333000
     98  _ZN1      20.4990   20.4990   33.4150   ZN   98  MOF        1.333000
     99  _ZN1      20.4990   46.3310    7.5820   ZN   99  MOF        1.333000
    100  _ZN1      20.4990   46.3310   33.4150   ZN  100  MOF        1.333000
    101  _ZN1      46.3310   20.4990    7.5820   ZN  101  MOF        1.333000
    102  _ZN1      46.3310   20.4990   33.4150   ZN  102  MOF        1.333000
    103  _ZN1      46.3310   46.3310    7.5820   ZN  103  MOF        1.333000
    104  _ZN1      46.3310   46.3310   33.4150   ZN  104  MOF        1.333000
    105  _ZN1       5.3340    5.3340   18.2500   ZN  105  MOF        1.333000
    106  _ZN1       5.3340    5.3340   44.0820   ZN  106  MOF        1.333000
    107  _ZN1       5.3340   31.1660   18.2500   ZN  107  MOF        1.333000
    108  _ZN1       5.3340   31.1660   44.0820   ZN  108  MOF        1.333000
    109  _ZN1      31.1660    5.3340   18.2500   ZN  109  MOF        1.333000
    110  _ZN1      31.1660    5.3340   44.0820   ZN  110  MOF        1.333000
    111  _ZN1      31.1660   31.1660   18.2500   ZN  111  MOF        1.333000
    112  _ZN1      31.1660   31.1660   44.0820   ZN  112  MOF        1.333000
    113  _ZN1      20.4990    5.3340   18.2500   ZN  113  MOF        1.333000
    114  _ZN1      20.4990    5.3340   44.0820   ZN  114  MOF        1.333000
    115  _ZN1      20.4990   31.1660   18.2500   ZN  115  MOF        1.333000
    116  _ZN1      20.4990   31.1660   44.0820   ZN  116  MOF        1.333000
    117  _ZN1      46.3310    5.3340   18.2500   ZN  117  MOF        1.333000
    118  _ZN1      46.3310    5.3340   44.0820   ZN  118  MOF        1.333000
    119  _ZN1      46.3310   31.1660   18.2500   ZN  119  MOF        1.333000
    120  _ZN1      46.3310   31.1660   44.0820   ZN  120  MOF        1.333000
    121  _ZN1       5.3340   20.4990    7.5820   ZN  121  MOF        1.333000
    122  _ZN1       5.3340   20.4990   33.4150   ZN  122  MOF        1.333000
    123  _ZN1       5.3340   46.3310    7.5820   ZN  123  MOF        1.333000
    124  _ZN1       5.3340   46.3310   33.4150   ZN  124  MOF        1.333000
    125  _ZN1      31.1660   20.4990    7.5820   ZN  125  MOF        1.333000
    126  _ZN1      31.1660   20.4990   33.4150   ZN  126  MOF        1.333000
    127  _ZN1      31.1660   46.3310    7.5820   ZN  127  MOF        1.333000
    128  _ZN1      31.1660   46.3310   33.4150   ZN  128  MOF        1.333000
    129  _ZN1       7.5820    5.3340    5.3340   ZN  129  MOF        1.333000
    130  _ZN1       7.5820    5.3340   31.1660   ZN  130  MOF        1.333000
    131  _ZN1       7.5820   31.1660    5.3340   ZN  131  MOF        1.333000
    132  _ZN1       7.5820   31.1660   31.1660   ZN  132  MOF        1.333000
    133  _ZN1      33.4150    5.3340    5.3340   ZN  133  MOF        1.333000
    134  _ZN1      33.4150    5.3340   31.1660   ZN  134  MOF        1.333000
    135  _ZN1      33.4150   31.1660    5.3340   ZN  135  MOF        1.333000
    136  _ZN1      33.4150   31.1660   31.1660   ZN  136  MOF        1.333000
    137  _ZN1      18.2500   20.4990   20.4990   ZN  137  MOF        1.333000
    138  _ZN1      18.2500   20.4990   46.3310   ZN  138  MOF        1.333000
    139  _ZN1      18.2500   46.3310   20.4990   ZN  139  MOF        1.333000
    140  _ZN1      18.2500   46.3310   46.3310   ZN  140  MOF        1.333000
    141  _ZN1      44.0820   20.4990   20.4990   ZN  141  MOF        1.333000
    142  _ZN1      44.0820   20.4990   46.3310   ZN  142  MOF        1.333000
    143  _ZN1      44.0820   46.3310   20.4990   ZN  143  MOF        1.333000
    144  _ZN1      44.0820   46.3310   46.3310   ZN  144  MOF        1.333000
    145  _ZN1      18.2500    5.3340   20.4990   ZN  145  MOF        1.333000
    146  _ZN1      18.2500    5.3340   46.3310   ZN  146  MOF        1.333000
    147  _ZN1      18.2500   31.1660   20.4990   ZN  147  MOF        1.333000
    148  _ZN1      18.2500   31.1660   46.3310   ZN  148  MOF        1.333000
    149  _ZN1      44.0820    5.3340   20.4990   ZN  149  MOF        1.333000
    150  _ZN1      44.0820    5.3340   46.3310   ZN  150  MOF        1.333000
    151  _ZN1      44.0820   31.1660   20.4990   ZN  151  MOF        1.333000
    152  _ZN1      44.0820   31.1660   46.3310   ZN  152  MOF        1.333000
    153  _ZN1       7.5820   20.4990    5.3340   ZN  153  MOF        1.333000
    154  _ZN1       7.5820   20.4990   31.1660   ZN  154  MOF        1.333000
    155  _ZN1       7.5820   46.3310    5.3340   ZN  155  MOF        1.333000
    156  _ZN1       7.5820   46.3310   31.1660   ZN  156  MOF        1.333000
    157  _ZN1      33.4150   20.4990    5.3340   ZN  157  MOF        1.333000
    158  _ZN1      33.4150   20.4990   31.1660   ZN  158  MOF        1.333000
    159  _ZN1      33.4150   46.3310    5.3340   ZN  159  MOF        1.333000
    160  _ZN1      33.4150   46.3310   31.1660   ZN  160  MOF        1.333000
    161  _ZN1       7.5820   20.4990   20.4990   ZN  161  MOF        1.333000
    162  _ZN1       7.5820   20.4990   46.3310   ZN  162  MOF        1.333000
    163  _ZN1       7.5820   46.3310   20.4990   ZN  163  MOF        1.333000
    164  _ZN1       7.5820   46.3310   46.3310   ZN  164  MOF        1.333000
    165  _ZN1      33.4150   20.4990   20.4990   ZN  165  MOF        1.333000
    166  _ZN1      33.4150   20.4990   46.3310   ZN  166  MOF        1.333000
    167  _ZN1      33.4150   46.3310   20.4990   ZN  167  MOF        1.333000
    168  _ZN1      33.4150   46.3310   46.3310   ZN  168  MOF        1.333000
    169  _ZN1      18.2500    5.3340    5.3340   ZN  169  MOF        1.333000
    170  _ZN1      18.2500    5.3340   31.1660   ZN  170  MOF        1.333000
    171  _ZN1      18.2500   31.1660    5.3340   ZN  171  MOF        1.333000
    172  _ZN1      18.2500   31.1660   31.1660   ZN  172  MOF        1.333000
    173  _ZN1      44.0820    5.3340    5.3340   ZN  173  MOF        1.333000
    174  _ZN1      44.0820    5.3340   31.1660   ZN  174  MOF        1.333000
    175  _ZN1      44.0820   31.1660    5.3340   ZN  175  MOF        1.333000
    176  _ZN1      44.0820   31.1660   31.1660   ZN  176  MOF        1.333000
    177  _ZN1      18.2500   20.4990    5.3340   ZN  177  MOF        1.333000
    178  _ZN1      18.2500   20.4990   31.1660   ZN  178  MOF        1.333000
    179  _ZN1      18.2500   46.3310    5.3340   ZN  179  MOF        1.333000
    180  _ZN1      18.2500   46.3310   31.1660   ZN  180  MOF        1.333000
    181  _ZN1      44.0820   20.4990    5.3340   ZN  181  MOF        1.333000
    182  _ZN1      44.0820   20.4990   31.1660   ZN  182  MOF        1.333000
    183  _ZN1      44.0820   46.3310    5.3340   ZN  183  MOF        1.333000
    184  _ZN1      44.0820   46.3310   31.1660   ZN  184  MOF        1.333000
    185  _ZN1       7.5820    5.3340   20.4990   ZN  185  MOF        1.333000
    186  _ZN1       7.5820    5.3340   46.3310   ZN  186  MOF        1.333000
    187  _ZN1       7.5820   31.1660   20.4990   ZN  187  MOF        1.333000
    188  _ZN1       7.5820   31.1660   46.3310   ZN  188  MOF        1.333000
    189  _ZN1      33.4150    5.3340   20.4990   ZN  189  MOF        1.333000
    190  _ZN1      33.4150    5.3340   46.3310   ZN  190  MOF        1.333000
    191  _ZN1      33.4150   31.1660   20.4990   ZN  191  MOF        1.333000
    192  _ZN1      33.4150   31.1660   46.3310   ZN  192  MOF        1.333000
    193  _ZN1       7.5820   18.2500   18.2500   ZN  193  MOF        1.333000
    194  _ZN1       7.5820   18.2500   44.0820   ZN  194  MOF        1.333000
    195  _ZN1       7.5820   44.0820   18.2500   ZN  195  MOF        1.333000
    196  _ZN1       7.5820   44.0820   44.0820   ZN  196  MOF        1.333000
    197  _ZN1      33.4150   18.2500   18.2500   ZN  197  MOF        1.333000
    198  _ZN1      33.4150   18.2500   44.0820   ZN  198  MOF        1.333000
    199  _ZN1      33.4150   44.0820   18.2500   ZN  199  MOF        1.333000
    200  _ZN1      33.4150   44.0820   44.0820   ZN  200  MOF        1.333000
    201  _ZN1      18.2500    7.5820    7.5820   ZN  201  MOF        1.333000
    202  _ZN1      18.2500    7.5820   33.4150   ZN  202  MOF        1.333000
    203  _ZN1      18.2500   33.4150    7.5820   ZN  203  MOF        1.333000
    204  _ZN1      18.2500   33.4150   33.4150   ZN  204  MOF        1.333000
    205  _ZN1      44.0820    7.5820    7.5820   ZN  205  MOF        1.333000
    206  _ZN1      44.0820    7.5820   33.4150   ZN  206  MOF        1.333000
    207  _ZN1      44.0820   33.4150    7.5820   ZN  207  MOF        1.333000
    208  _ZN1      44.0820   33.4150   33.4150   ZN  208  MOF        1.333000
    209  _ZN1      18.2500   18.2500    7.5820   ZN  209  MOF        1.333000
    210  _ZN1      18.2500   18.2500   33.4150   ZN  210  MOF        1.333000
    211  _ZN1      18.2500   44.0820    7.5820   ZN  211  MOF        1.333000
    212  _ZN1      18.2500   44.0820   33.4150   ZN  212  MOF        1.333000
    213  _ZN1      44.0820   18.2500    7.5820   ZN  213  MOF        1.333000
    214  _ZN1      44.0820   18.2500   33.4150   ZN  214  MOF        1.333000
    215  _ZN1      44.0820   44.0820    7.5820   ZN  215  MOF        1.333000
    216  _ZN1      44.0820   44.0820   33.4150   ZN  216  MOF        1.333000
    217  _ZN1       7.5820    7.5820   18.2500   ZN  217  MOF        1.333000
    218  _ZN1       7.5820    7.5820   44.0820   ZN  218  MOF        1.333000
    219  _ZN1       7.5820   33.4150   18.2500   ZN  219  MOF        1.333000
    220  _ZN1       7.5820   33.4150   44.0820   ZN  220  MOF        1.333000
    221  _ZN1      33.4150    7.5820   18.2500   ZN  221  MOF        1.333000
    222  _ZN1      33.4150    7.5820   44.0820   ZN  222  MOF        1.333000
    223  _ZN1      33.4150   33.4150   18.2500   ZN  223  MOF        1.333000
    224  _ZN1      33.4150   33.4150   44.0820   ZN  224  MOF        1.333000
    225  _ZN1       7.5820    7.5820    7.5820   ZN  225  MOF        1.333000
    226  _ZN1       7.5820    7.5820   33.4150   ZN  226  MOF        1.333000
    227  _ZN1       7.5820   33.4150    7.5820   ZN  227  MOF        1.333000
    228  _ZN1       7.5820   33.4150   33.4150   ZN  228  MOF        1.333000
    229  _ZN1      33.4150    7.5820    7.5820   ZN  229  MOF        1.333000
    230  _ZN1      33.4150    7.5820   33.4150   ZN  230  MOF        1.333000
    231  _ZN1      33.4150   33.4150    7.5820   ZN  231  MOF        1.333000
    232  _ZN1      33.4150   33.4150   33.4150   ZN  232  MOF        1.333000
    233  _ZN1      18.2500   18.2500   18.2500   ZN  233  MOF        1.333000
    234  _ZN1      18.2500   18.2500   44.0820   ZN  234  MOF        1.333000
    235  _ZN1      18.2500   44.0820   18.2500   ZN  235  MOF        1.333000
    236  _ZN1      18.2500   44.0820   44.0820   ZN  236  MOF        1.333000
    237  _ZN1      44.0820   18.2500   18.2500   ZN  237  MOF        1.333000
    238  _ZN1      44.0820   18.2500   44.0820   ZN  238  MOF        1.333000
    239  _ZN1      44.0820   44.0820   18.2500   ZN  239  MOF        1.333000
    240  _ZN1      44.0820   44.0820   44.0820   ZN  240  MOF        1.333000
    241  _ZN1      18.2500    7.5820   18.2500   ZN  241  MOF        1.333000
    242  _ZN1      18.2500    7.5820   44.0820   ZN  242  MOF        1.333000
    243  _ZN1      18.2500   33.4150   18.2500   ZN  243  MOF        1.333000
    244  _ZN1      18.2500   33.4150   44.0820   ZN  244  MOF        1.333000
    245  _ZN1      44.0820    7.5820   18.2500   ZN  245  MOF        1.333000
    246  _ZN1      44.0820    7.5820   44.0820   ZN  246  MOF        1.333000
    247  _ZN1      44.0820   33.4150   18.2500   ZN  247  MOF        1.333000
    248  _ZN1      44.0820   33.4150   44.0820   ZN  248  MOF        1.333000
    249  _ZN1       7.5820   18.2500    7.5820   ZN  249  MOF        1.333000
    250  _ZN1       7.5820   18.2500   33.4150   ZN  250  MOF        1.333000
    251  _ZN1       7.5820   44.0820    7.5820   ZN  251  MOF        1.333000
    252  _ZN1       7.5820   44.0820   33.4150   ZN  252  MOF        1.333000
    253  _ZN1      33.4150   18.2500    7.5820   ZN  253  MOF        1.333000
    254  _ZN1      33.4150   18.2500   33.4150   ZN  254  MOF        1.333000
    255  _ZN1      33.4150   44.0820    7.5820   ZN  255  MOF        1.333000
    256  _ZN1      33.4150   44.0820   33.4150   ZN  256  MOF        1.333000
    257  _C1        6.4580    6.4580    2.8780    C    1  MOF        0.558000
    258  _C1        6.4580    6.4580   28.7110    C    2  MOF        0.558000
    259  _C1        6.4580   32.2900    2.8780    C    3  MOF        0.558000
    260  _C1        6.4580   32.2900   28.7110    C    4  MOF        0.558000
    261  _C1       32.2900    6.4580    2.8780    C    5  MOF        0.558000
    262  _C1       32.2900    6.4580   28.7110    C    6  MOF        0.558000
    263  _C1       32.2900   32.2900    2.8780    C    7  MOF        0.558000
    264  _C1       32.2900   32.2900   28.7110    C    8  MOF        0.558000
    265  _C1       19.3740   19.3740   22.9540    C    9  MOF        0.558000
    266  _C1       19.3740   19.3740   48.7860    C   10  MOF        0.558000
    267  _C1       19.3740   45.2070   22.9540    C   11  MOF        0.558000
    268  _C1       19.3740   45.2070   48.7860    C   12  MOF        0.558000
    269  _C1       45.2070   19.3740   22.9540    C   13  MOF        0.558000
    270  _C1       45.2070   19.3740   48.7860    C   14  MOF        0.558000
    271  _C1       45.2070   45.2070   22.9540    C   15  MOF        0.558000
    272  _C1       45.2070   45.2070   48.7860    C   16  MOF        0.558000
    273  _C1       19.3740   19.3740    2.8780    C   17  MOF        0.558000
    274  _C1       19.3740   19.3740   28.7110    C   18  MOF        0.558000
    275  _C1       19.3740   45.2070    2.8780    C   19  MOF        0.558000
    276  _C1       19.3740   45.2070   28.7110    C   20  MOF        0.558000
    277  _C1       45.2070   19.3740    2.8780    C   21  MOF        0.558000
    278  _C1       45.2070   19.3740   28.7110    C   22  MOF        0.558000
    279  _C1       45.2070   45.2070    2.8780    C   23  MOF        0.558000
    280  _C1       45.2070   45.2070   28.7110    C   24  MOF        0.558000
    281  _C1        6.4580    6.4580   22.9540    C   25  MOF        0.558000
    282  _C1        6.4580    6.4580   48.7860    C   26  MOF        0.558000
    283  _C1        6.4580   32.2900   22.9540    C   27  MOF        0.558000
    284  _C1        6.4580   32.2900   48.7860    C   28  MOF        0.558000
    285  _C1       32.2900    6.4580   22.9540    C   29  MOF        0.558000
    286  _C1       32.2900    6.4580   48.7860    C   30  MOF        0.558000
    287  _C1       32.2900   32.2900   22.9540    C   31  MOF        0.558000
    288  _C1       32.2900   32.2900   48.7860    C   32  MOF        0.558000
    289  _C1       19.3740    6.4580   22.9540    C   33  MOF        0.558000
    290  _C1       19.3740    6.4580   48.7860    C   34  MOF        0.558000
    291  _C1       19.3740   32.2900   22.9540    C   35  MOF        0.558000
    292  _C1       19.3740   32.2900   48.7860    C   36  MOF        0.558000
    293  _C1       45.2070    6.4580   22.9540    C   37  MOF        0.558000
    294  _C1       45.2070    6.4580   48.7860    C   38  MOF        0.558000
    295  _C1       45.2070   32.2900   22.9540    C   39  MOF        0.558000
    296  _C1       45.2070   32.2900   48.7860    C   40  MOF        0.558000
    297  _C1        6.4580   19.3740    2.8780    C   41  MOF        0.558000
    298  _C1        6.4580   19.3740   28.7110    C   42  MOF        0.558000
    299  _C1        6.4580   45.2070    2.8780    C   43  MOF        0.558000
    300  _C1        6.4580   45.2070   28.7110    C   44  MOF        0.558000
    301  _C1       32.2900   19.3740    2.8780    C   45  MOF        0.558000
    302  _C1       32.2900   19.3740   28.7110    C   46  MOF        0.558000
    303  _C1       32.2900   45.2070    2.8780    C   47  MOF        0.558000
    304  _C1       32.2900   45.2070   28.7110    C   48  MOF        0.558000
    305  _C1        6.4580   19.3740   22.9540    C   49  MOF        0.558000
    306  _C1        6.4580   19.3740   48.7860    C   50  MOF        0.558000
    307  _C1        6.4580   45.2070   22.9540    C   51  MOF        0.558000
    308  _C1        6.4580   45.2070   48.7860    C   52  MOF        0.558000
    309  _C1       32.2900   19.3740   22.9540    C   53  MOF        0.558000
    310  _C1       32.2900   19.3740   48.7860    C   54  MOF        0.558000
    311  _C1       32.2900   45.2070   22.9540    C   55  MOF        0.558000
    312  _C1       32.2900   45.2070   48.7860    C   56  MOF        0.558000
    313  _C1       19.3740    6.4580    2.8780    C   57  MOF        0.558000
    314  _C1       19.3740    6.4580   28.7110    C   58  MOF        0.558000
    315  _C1       19.3740   32.2900    2.8780    C   59  MOF        0.558000
    316  _C1       19.3740   32.2900   28.7110    C   60  MOF        0.558000
    317  _C1       45.2070    6.4580    2.8780    C   61  MOF        0.558000
    318  _C1       45.2070    6.4580   28.7110    C   62  MOF        0.558000
    319  _C1       45.2070   32.2900    2.8780    C   63  MOF        0.558000
    320  _C1       45.2070   32.2900   28.7110    C   64  MOF        0.558000
    321  _C1        2.8780    6.4580    6.4580    C   65  MOF        0.558000
    322  _C1        2.8780    6.4580   32.2900    C   66  MOF        0.558000
    323  _C1        2.8780   32.2900    6.4580    C   67  MOF        0.558000
    324  _C1        2.8780   32.2900   32.2900    C   68  MOF        0.558000
    325  _C1       28.7110    6.4580    6.4580    C   69  MOF        0.558000
    326  _C1       28.7110    6.4580   32.2900    C   70  MOF        0.558000
    327  _C1       28.7110   32.2900    6.4580    C   71  MOF        0.558000
    328  _C1       28.7110   32.2900   32.2900    C   72  MOF        0.558000
    329  _C1       22.9540   19.3740   19.3740    C   73  MOF        0.558000
    330  _C1       22.9540   19.3740   45.2070    C   74  MOF        0.558000
    331  _C1       22.9540   45.2070   19.3740    C   75  MOF        0.558000
    332  _C1       22.9540   45.2070   45.2070    C   76  MOF        0.558000
    333  _C1       48.7860   19.3740   19.3740    C   77  MOF        0.558000
    334  _C1       48.7860   19.3740   45.2070    C   78  MOF        0.558000
    335  _C1       48.7860   45.2070   19.3740    C   79  MOF        0.558000
    336  _C1       48.7860   45.2070   45.2070    C   80  MOF        0.558000
    337  _C1        2.8780   19.3740   19.3740    C   81  MOF        0.558000
    338  _C1        2.8780   19.3740   45.2070    C   82  MOF        0.558000
    339  _C1        2.8780   45.2070   19.3740    C   83  MOF        0.558000
    340  _C1        2.8780   45.2070   45.2070    C   84  MOF        0.558000
    341  _C1       28.7110   19.3740   19.3740    C   85  MOF        0.558000
    342  _C1       28.7110   19.3740   45.2070    C   86  MOF        0.558000
    343  _C1       28.7110   45.2070   19.3740    C   87  MOF        0.558000
    344  _C1       28.7110   45.2070   45.2070    C   88  MOF        0.558000
    345  _C1       22.9540    6.4580    6.4580    C   89  MOF        0.558000
    346  _C1       22.9540    6.4580   32.2900    C   90  MOF        0.558000
    347  _C1       22.9540   32.2900    6.4580    C   91  MOF        0.558000
    348  _C1       22.9540   32.2900   32.2900    C   92  MOF        0.558000
    349  _C1       48.7860    6.4580    6.4580    C   93  MOF        0.558000
    350  _C1       48.7860    6.4580   32.2900    C   94  MOF        0.558000
    351  _C1       48.7860   32.2900    6.4580    C   95  MOF        0.558000
    352  _C1       48.7860   32.2900   32.2900    C   96  MOF        0.558000
    353  _C1       22.9540   19.3740    6.4580    C   97  MOF        0.558000
    354  _C1       22.9540   19.3740   32.2900    C   98  MOF        0.558000
    355  _C1       22.9540   45.2070    6.4580    C   99  MOF        0.558000
    356  _C1       22.9540   45.2070   32.2900    C  100  MOF        0.558000
    357  _C1       48.7860   19.3740    6.4580    C  101  MOF        0.558000
    358  _C1       48.7860   19.3740   32.2900    C  102  MOF        0.558000
    359  _C1       48.7860   45.2070    6.4580    C  103  MOF        0.558000
    360  _C1       48.7860   45.2070   32.2900    C  104  MOF        0.558000
    361  _C1        2.8780    6.4580   19.3740    C  105  MOF        0.558000
    362  _C1        2.8780    6.4580   45.2070    C  106  MOF        0.558000
    363  _C1        2.8780   32.2900   19.3740    C  107  MOF        0.558000
    364  _C1        2.8780   32.2900   45.2070    C  108  MOF        0.558000
    365  _C1       28.7110    6.4580   19.3740    C  109  MOF        0.558000
    366  _C1       28.7110    6.4580   45.2070    C  110  MOF        0.558000
    367  _C1       28.7110   32.2900   19.3740    C  111  MOF        0.558000
    368  _C1       28.7110   32.2900   45.2070    C  112  MOF        0.558000
    369  _C1       22.9540    6.4580   19.3740    C  113  MOF        0.558000
    370  _C1       22.9540    6.4580   45.2070    C  114  MOF        0.558000
    371  _C1       22.9540   32.2900   19.3740    C  115  MOF        0.558000
    372  _C1       22.9540   32.2900   45.2070    C  116  MOF        0.558000
    373  _C1       48.7860    6.4580   19.3740    C  117  MOF        0.558000
    374  _C1       48.7860    6.4580   45.2070    C  118  MOF        0.558000
    375  _C1       48.7860   32.2900   19.3740    C  119  MOF        0.558000
    376  _C1       48.7860   32.2900   45.2070    C  120  MOF        0.558000
    377  _C1        2.8780   19.3740    6.4580    C  121  MOF        0.558000
    378  _C1        2.8780   19.3740   32.2900    C  122  MOF        0.558000
    379  _C1        2.8780   45.2070    6.4580    C  123  MOF        0.558000
    380  _C1        2.8780   45.2070   32.2900    C  124  MOF        0.558000
    381  _C1       28.7110   19.3740    6.4580    C  125  MOF        0.558000
    382  _C1       28.7110   19.3740   32.2900    C  126  MOF        0.558000
    383  _C1       28.7110   45.2070    6.4580    C  127  MOF        0.558000
    384  _C1       28.7110   45.2070   32.2900    C  128  MOF        0.558000
    385  _C1        6.4580    2.8780    6.4580    C  129  MOF        0.558000
    386  _C1        6.4580    2.8780   32.2900    C  130  MOF        0.558000
    387  _C1        6.4580   28.7110    6.4580    C  131  MOF        0.558000
    388  _C1        6.4580   28.7110   32.2900    C  132  MOF        0.558000
    389  _C1       32.2900    2.8780    6.4580    C  133  MOF        0.558000
    390  _C1       32.2900    2.8780   32.2900    C  134  MOF        0.558000
    391  _C1       32.2900   28.7110    6.4580    C  135  MOF        0.558000
    392  _C1       32.2900   28.7110   32.2900    C  136  MOF        0.558000
    393  _C1       19.3740   22.9540   19.3740    C  137  MOF        0.558000
    394  _C1       19.3740   22.9540   45.2070    C  138  MOF        0.558000
    395  _C1       19.3740   48.7860   19.3740    C  139  MOF        0.558000
    396  _C1       19.3740   48.7860   45.2070    C  140  MOF        0.558000
    397  _C1       45.2070   22.9540   19.3740    C  141  MOF        0.558000
    398  _C1       45.2070   22.9540   45.2070    C  142  MOF        0.558000
    399  _C1       45.2070   48.7860   19.3740    C  143  MOF        0.558000
    400  _C1       45.2070   48.7860   45.2070    C  144  MOF        0.558000
    401  _C1       19.3740    2.8780   19.3740    C  145  MOF        0.558000
    402  _C1       19.3740    2.8780   45.2070    C  146  MOF        0.558000
    403  _C1       19.3740   28.7110   19.3740    C  147  MOF        0.558000
    404  _C1       19.3740   28.7110   45.2070    C  148  MOF        0.558000
    405  _C1       45.2070    2.8780   19.3740    C  149  MOF        0.558000
    406  _C1       45.2070    2.8780   45.2070    C  150  MOF        0.558000
    407  _C1       45.2070   28.7110   19.3740    C  151  MOF        0.558000
    408  _C1       45.2070   28.7110   45.2070    C  152  MOF        0.558000
    409  _C1        6.4580   22.9540    6.4580    C  153  MOF        0.558000
    410  _C1        6.4580   22.9540   32.2900    C  154  MOF        0.558000
    411  _C1        6.4580   48.7860    6.4580    C  155  MOF        0.558000
    412  _C1        6.4580   48.7860   32.2900    C  156  MOF        0.558000
    413  _C1       32.2900   22.9540    6.4580    C  157  MOF        0.558000
    414  _C1       32.2900   22.9540   32.2900    C  158  MOF        0.558000
    415  _C1       32.2900   48.7860    6.4580    C  159  MOF        0.558000
    416  _C1       32.2900   48.7860   32.2900    C  160  MOF        0.558000
    417  _C1        6.4580   22.9540   19.3740    C  161  MOF        0.558000
    418  _C1        6.4580   22.9540   45.2070    C  162  MOF        0.558000
    419  _C1        6.4580   48.7860   19.3740    C  163  MOF        0.558000
    420  _C1        6.4580   48.7860   45.2070    C  164  MOF        0.558000
    421  _C1       32.2900   22.9540   19.3740    C  165  MOF        0.558000
    422  _C1       32.2900   22.9540   45.2070    C  166  MOF        0.558000
    423  _C1       32.2900   48.7860   19.3740    C  167  MOF        0.558000
    424  _C1       32.2900   48.7860   45.2070    C  168  MOF        0.558000
    425  _C1       19.3740    2.8780    6.4580    C  169  MOF        0.558000
    426  _C1       19.3740    2.8780   32.2900    C  170  MOF        0.558000
    427  _C1       19.3740   28.7110    6.4580    C  171  MOF        0.558000
    428  _C1       19.3740   28.7110   32.2900    C  172  MOF        0.558000
    429  _C1       45.2070    2.8780    6.4580    C  173  MOF        0.558000
    430  _C1       45.2070    2.8780   32.2900    C  174  MOF        0.558000
    431  _C1       45.2070   28.7110    6.4580    C  175  MOF        0.558000
    432  _C1       45.2070   28.7110   32.2900    C  176  MOF        0.558000
    433  _C1       19.3740   22.9540    6.4580    C  177  MOF        0.558000
    434  _C1       19.3740   22.9540   32.2900    C  178  MOF        0.558000
    435  _C1       19.3740   48.7860    6.4580    C  179  MOF        0.558000
    436  _C1       19.3740   48.7860   32.2900    C  180  MOF        0.558000
    437  _C1       45.2070   22.9540    6.4580    C  181  MOF        0.558000
    438  _C1       45.2070   22.9540   32.2900    C  182  MOF        0.558000
    439  _C1       45.2070   48.7860    6.4580    C  183  MOF        0.558000
    440  _C1       45.2070   48.7860   32.2900    C  184  MOF        0.558000
    441  _C1        6.4580    2.8780   19.3740    C  185  MOF        0.558000
    442  _C1        6.4580    2.8780   45.2070    C  186  MOF        0.558000
    443  _C1        6.4580   28.7110   19.3740    C  187  MOF        0.558000
    444  _C1        6.4580   28.7110   45.2070    C  188  MOF        0.558000
    445  _C1       32.2900    2.8780   19.3740    C  189  MOF        0.558000
    446  _C1       32.2900    2.8780   45.2070    C  190  MOF        0.558000
    447  _C1       32.2900   28.7110   19.3740    C  191  MOF        0.558000
    448  _C1       32.2900   28.7110   45.2070    C  192  MOF        0.558000
    449  _C1        6.4580   19.3740   15.7940    C  193  MOF        0.558000
    450  _C1        6.4580   19.3740   41.6270    C  194  MOF        0.558000
    451  _C1        6.4580   45.2070   15.7940    C  195  MOF        0.558000
    452  _C1        6.4580   45.2070   41.6270    C  196  MOF        0.558000
    453  _C1       32.2900   19.3740   15.7940    C  197  MOF        0.558000
    454  _C1       32.2900   19.3740   41.6270    C  198  MOF        0.558000
    455  _C1       32.2900   45.2070   15.7940    C  199  MOF        0.558000
    456  _C1       32.2900   45.2070   41.6270    C  200  MOF        0.558000
    457  _C1       19.3740    6.4580   10.0380    C  201  MOF        0.558000
    458  _C1       19.3740    6.4580   35.8700    C  202  MOF        0.558000
    459  _C1       19.3740   32.2900   10.0380    C  203  MOF        0.558000
    460  _C1       19.3740   32.2900   35.8700    C  204  MOF        0.558000
    461  _C1       45.2070    6.4580   10.0380    C  205  MOF        0.558000
    462  _C1       45.2070    6.4580   35.8700    C  206  MOF        0.558000
    463  _C1       45.2070   32.2900   10.0380    C  207  MOF        0.558000
    464  _C1       45.2070   32.2900   35.8700    C  208  MOF        0.558000
    465  _C1       19.3740    6.4580   15.7940    C  209  MOF        0.558000
    466  _C1       19.3740    6.4580   41.6270    C  210  MOF        0.558000
    467  _C1       19.3740   32.2900   15.7940    C  211  MOF        0.558000
    468  _C1       19.3740   32.2900   41.6270    C  212  MOF        0.558000
    469  _C1       45.2070    6.4580   15.7940    C  213  MOF        0.558000
    470  _C1       45.2070    6.4580   41.6270    C  214  MOF        0.558000
    471  _C1       45.2070   32.2900   15.7940    C  215  MOF        0.558000
    472  _C1       45.2070   32.2900   41.6270    C  216  MOF        0.558000
    473  _C1        6.4580   19.3740   10.0380    C  217  MOF        0.558000
    474  _C1        6.4580   19.3740   35.8700    C  218  MOF        0.558000
    475  _C1        6.4580   45.2070   10.0380    C  219  MOF        0.558000
    476  _C1        6.4580   45.2070   35.8700    C  220  MOF        0.558000
    477  _C1       32.2900   19.3740   10.0380    C  221  MOF        0.558000
    478  _C1       32.2900   19.3740   35.8700    C  222  MOF        0.558000
    479  _C1       32.2900   45.2070   10.0380    C  223  MOF        0.558000
    480  _C1       32.2900   45.2070   35.8700    C  224  MOF        0.558000
    481  _C1       19.3740   19.3740   10.0380    C  225  MOF        0.558000
    482  _C1       19.3740   19.3740   35.8700    C  226  MOF        0.558000
    483  _C1       19.3740   45.2070   10.0380    C  227  MOF        0.558000
    484  _C1       19.3740   45.2070   35.8700    C  228  MOF        0.558000
    485  _C1       45.2070   19.3740   10.0380    C  229  MOF        0.558000
    486  _C1       45.2070   19.3740   35.8700    C  230  MOF        0.558000
    487  _C1       45.2070   45.2070   10.0380    C  231  MOF        0.558000
    488  _C1       45.2070   45.2070   35.8700    C  232  MOF        0.558000
    489  _C1        6.4580    6.4580   15.7940    C  233  MOF        0.558000
    490  _C1        6.4580    6.4580   41.6270    C  234  MOF        0.558000
    491  _C1        6.4580   32.2900   15.7940    C  235  MOF        0.558000
    492  _C1        6.4580   32.2900   41.6270    C  236  MOF        0.558000
    493  _C1       32.2900    6.4580   15.7940    C  237  MOF        0.558000
    494  _C1       32.2900    6.4580   41.6270    C  238  MOF        0.558000
    495  _C1       32.2900   32.2900   15.7940    C  239  MOF        0.558000
    496  _C1       32.2900   32.2900   41.6270    C  240  MOF        0.558000
    497  _C1        6.4580    6.4580   10.0380    C  241  MOF        0.558000
    498  _C1        6.4580    6.4580   35.8700    C  242  MOF        0.558000
    499  _C1        6.4580   32.2900   10.0380    C  243  MOF        0.558000
    500  _C1        6.4580   32.2900   35.8700    C  244  MOF        0.558000
    501  _C1       32.2900    6.4580   10.0380    C  245  MOF        0.558000
    502  _C1       32.2900    6.4580   35.8700    C  246  MOF        0.558000
    503  _C1       32.2900   32.2900   10.0380    C  247  MOF        0.558000
    504  _C1       32.2900   32.2900   35.8700    C  248  MOF        0.558000
    505  _C1       19.3740   19.3740   15.7940    C  249  MOF        0.558000
    506  _C1       19.3740   19.3740   41.6270    C  250  MOF        0.558000
    507  _C1       19.3740   45.2070   15.7940    C  251  MOF        0.558000
    508  _C1       19.3740   45.2070   41.6270    C  252  MOF        0.558000
    509  _C1       45.2070   19.3740   15.7940    C  253  MOF        0.558000
    510  _C1       45.2070   19.3740   41.6270    C  254  MOF        0.558000
    511  _C1       45.2070   45.2070   15.7940    C  255  MOF        0.558000
    512  _C1       45.2070   45.2070   41.6270    C  256  MOF        0.558000
    513  _C1        6.4580   15.7940   19.3740    C  257  MOF        0.558000
    514  _C1        6.4580   15.7940   45.2070    C  258  MOF        0.558000
    515  _C1        6.4580   41.6270   19.3740    C  259  MOF        0.558000
    516  _C1        6.4580   41.6270   45.2070    C  260  MOF        0.558000
    517  _C1       32.2900   15.7940   19.3740    C  261  MOF        0.558000
    518  _C1       32.2900   15.7940   45.2070    C  262  MOF        0.558000
    519  _C1       32.2900   41.6270   19.3740    C  263  MOF        0.558000
    520  _C1       32.2900   41.6270   45.2070    C  264  MOF        0.558000
    521  _C1       19.3740   10.0380    6.4580    C  265  MOF        0.558000
    522  _C1       19.3740   10.0380   32.2900    C  266  MOF        0.558000
    523  _C1       19.3740   35.8700    6.4580    C  267  MOF        0.558000
    524  _C1       19.3740   35.8700   32.2900    C  268  MOF        0.558000
    525  _C1       45.2070   10.0380    6.4580    C  269  MOF        0.558000
    526  _C1       45.2070   10.0380   32.2900    C  270  MOF        0.558000
    527  _C1       45.2070   35.8700    6.4580    C  271  MOF        0.558000
    528  _C1       45.2070   35.8700   32.2900    C  272  MOF        0.558000
    529  _C1       19.3740   15.7940    6.4580    C  273  MOF        0.558000
    530  _C1       19.3740   15.7940   32.2900    C  274  MOF        0.558000
    531  _C1       19.3740   41.6270    6.4580    C  275  MOF        0.558000
    532  _C1       19.3740   41.6270   32.2900    C  276  MOF        0.558000
    533  _C1       45.2070   15.7940    6.4580    C  277  MOF        0.558000
    534  _C1       45.2070   15.7940   32.2900    C  278  MOF        0.558000
    535  _C1       45.2070   41.6270    6.4580    C  279  MOF        0.558000
    536  _C1       45.2070   41.6270   32.2900    C  280  MOF        0.558000
    537  _C1        6.4580   10.0380   19.3740    C  281  MOF        0.558000
    538  _C1        6.4580   10.0380   45.2070    C  282  MOF        0.558000
    539  _C1        6.4580   35.8700   19.3740    C  283  MOF        0.558000
    540  _C1        6.4580   35.8700   45.2070    C  284  MOF        0.558000
    541  _C1       32.2900   10.0380   19.3740    C  285  MOF        0.558000
    542  _C1       32.2900   10.0380   45.2070    C  286  MOF        0.558000
    543  _C1       32.2900   35.8700   19.3740    C  287  MOF        0.558000
    544  _C1       32.2900   35.8700   45.2070    C  288  MOF        0.558000
    545  _C1        6.4580   10.0380    6.4580    C  289  MOF        0.558000
    546  _C1        6.4580   10.0380   32.2900    C  290  MOF        0.558000
    547  _C1        6.4580   35.8700    6.4580    C  291  MOF        0.558000
    548  _C1        6.4580   35.8700   32.2900    C  292  MOF        0.558000
    549  _C1       32.2900   10.0380    6.4580    C  293  MOF        0.558000
    550  _C1       32.2900   10.0380   32.2900    C  294  MOF        0.558000
    551  _C1       32.2900   35.8700    6.4580    C  295  MOF        0.558000
    552  _C1       32.2900   35.8700   32.2900    C  296  MOF        0.558000
    553  _C1       19.3740   15.7940   19.3740    C  297  MOF        0.558000
    554  _C1       19.3740   15.7940   45.2070    C  298  MOF        0.558000
    555  _C1       19.3740   41.6270   19.3740    C  299  MOF        0.558000
    556  _C1       19.3740   41.6270   45.2070    C  300  MOF        0.558000
    557  _C1       45.2070   15.7940   19.3740    C  301  MOF        0.558000
    558  _C1       45.2070   15.7940   45.2070    C  302  MOF        0.558000
    559  _C1       45.2070   41.6270   19.3740    C  303  MOF        0.558000
    560  _C1       45.2070   41.6270   45.2070    C  304  MOF        0.558000
    561  _C1       19.3740   10.0380   19.3740    C  305  MOF        0.558000
    562  _C1       19.3740   10.0380   45.2070    C  306  MOF        0.558000
    563  _C1       19.3740   35.8700   19.3740    C  307  MOF        0.558000
    564  _C1       19.3740   35.8700   45.2070    C  308  MOF        0.558000
    565  _C1       45.2070   10.0380   19.3740    C  309  MOF        0.558000
    566  _C1       45.2070   10.0380   45.2070    C  310  MOF        0.558000
    567  _C1       45.2070   35.8700   19.3740    C  311  MOF        0.558000
    568  _C1       45.2070   35.8700   45.2070    C  312  MOF        0.558000
    569  _C1        6.4580   15.7940    6.4580    C  313  MOF        0.558000
    570  _C1        6.4580   15.7940   32.2900    C  314  MOF        0.558000
    571  _C1        6.4580   41.6270    6.4580    C  315  MOF        0.558000
    572  _C1        6.4580   41.6270   32.2900    C  316  MOF        0.558000
    573  _C1       32.2900   15.7940    6.4580    C  317  MOF        0.558000
    574  _C1       32.2900   15.7940   32.2900    C  318  MOF        0.558000
    575  _C1       32.2900   41.6270    6.4580    C  319  MOF        0.558000
    576  _C1       32.2900   41.6270   32.2900    C  320  MOF        0.558000
    577  _C1       15.7940    6.4580   19.3740    C  321  MOF        0.558000
    578  _C1       15.7940    6.4580   45.2070    C  322  MOF        0.558000
    579  _C1       15.7940   32.2900   19.3740    C  323  MOF        0.558000
    580  _C1       15.7940   32.2900   45.2070    C  324  MOF        0.558000
    581  _C1       41.6270    6.4580   19.3740    C  325  MOF        0.558000
    582  _C1       41.6270    6.4580   45.2070    C  326  MOF        0.558000
    583  _C1       41.6270   32.2900   19.3740    C  327  MOF        0.558000
    584  _C1       41.6270   32.2900   45.2070    C  328  MOF        0.558000
    585  _C1       10.0380   19.3740    6.4580    C  329  MOF        0.558000
    586  _C1       10.0380   19.3740   32.2900    C  330  MOF        0.558000
    587  _C1       10.0380   45.2070    6.4580    C  331  MOF        0.558000
    588  _C1       10.0380   45.2070   32.2900    C  332  MOF        0.558000
    589  _C1       35.8700   19.3740    6.4580    C  333  MOF        0.558000
    590  _C1       35.8700   19.3740   32.2900    C  334  MOF        0.558000
    591  _C1       35.8700   45.2070    6.4580    C  335  MOF        0.558000
    592  _C1       35.8700   45.2070   32.2900    C  336  MOF        0.558000
    593  _C1       15.7940   19.3740    6.4580    C  337  MOF        0.558000
    594  _C1       15.7940   19.3740   32.2900    C  338  MOF        0.558000
    595  _C1       15.7940   45.2070    6.4580    C  339  MOF        0.558000
    596  _C1       15.7940   45.2070   32.2900    C  340  MOF        0.558000
    597  _C1       41.6270   19.3740    6.4580    C  341  MOF        0.558000
    598  _C1       41.6270   19.3740   32.2900    C  342  MOF        0.558000
    599  _C1       41.6270   45.2070    6.4580    C  343  MOF        0.558000
    600  _C1       41.6270   45.2070   32.2900    C  344  MOF        0.558000
    601  _C1       10.0380    6.4580   19.3740    C  345  MOF        0.558000
    602  _C1       10.0380    6.4580   45.2070    C  346  MOF        0.558000
    603  _C1       10.0380   32.2900   19.3740    C  347  MOF        0.558000
    604  _C1       10.0380   32.2900   45.2070    C  348  MOF        0.558000
    605  _C1       35.8700    6.4580   19.3740    C  349  MOF        0.558000
    606  _C1       35.8700    6.4580   45.2070    C  350  MOF        0.558000
    607  _C1       35.8700   32.2900   19.3740    C  351  MOF        0.558000
    608  _C1       35.8700   32.2900   45.2070    C  352  MOF        0.558000
    609  _C1       10.0380   19.3740   19.3740    C  353  MOF        0.558000
    610  _C1       10.0380   19.3740   45.2070    C  354  MOF        0.558000
    611  _C1       10.0380   45.2070   19.3740    C  355  MOF        0.558000
    612  _C1       10.0380   45.2070   45.2070    C  356  MOF        0.558000
    613  _C1       35.8700   19.3740   19.3740    C  357  MOF        0.558000
    614  _C1       35.8700   19.3740   45.2070    C  358  MOF        0.558000
    615  _C1       35.8700   45.2070   19.3740    C  359  MOF        0.558000
    616  _C1       35.8700   45.2070   45.2070    C  360  MOF        0.558000
    617  _C1       15.7940    6.4580    6.4580    C  361  MOF        0.558000
    618  _C1       15.7940    6.4580   32.2900    C  362  MOF        0.558000
    619  _C1       15.7940   32.2900    6.4580    C  363  MOF        0.558000
    620  _C1       15.7940   32.2900   32.2900    C  364  MOF        0.558000
    621  _C1       41.6270    6.4580    6.4580    C  365  MOF        0.558000
    622  _C1       41.6270    6.4580   32.2900    C  366  MOF        0.558000
    623  _C1       41.6270   32.2900    6.4580    C  367  MOF        0.558000
    624  _C1       41.6270   32.2900   32.2900    C  368  MOF        0.558000
    625  _C1       10.0380    6.4580    6.4580    C  369  MOF        0.558000
    626  _C1       10.0380    6.4580   32.2900    C  370  MOF        0.558000
    627  _C1       10.0380   32.2900    6.4580    C  371  MOF        0.558000
    628  _C1       10.0380   32.2900   32.2900    C  372  MOF        0.558000
    629  _C1       35.8700    6.4580    6.4580    C  373  MOF        0.558000
    630  _C1       35.8700    6.4580   32.2900    C  374  MOF        0.558000
    631  _C1       35.8700   32.2900    6.4580    C  375  MOF        0.558000
    632  _C1       35.8700   32.2900   32.2900    C  376  MOF        0.558000
    633  _C1       15.7940   19.3740   19.3740    C  377  MOF        0.558000
    634  _C1       15.7940   19.3740   45.2070    C  378  MOF        0.558000
    635  _C1       15.7940   45.2070   19.3740    C  379  MOF        0.558000
    636  _C1       15.7940   45.2070   45.2070    C  380  MOF        0.558000
    637  _C1       41.6270   19.3740   19.3740    C  381  MOF        0.558000
    638  _C1       41.6270   19.3740   45.2070    C  382  MOF        0.558000
    639  _C1       41.6270   45.2070   19.3740    C  383  MOF        0.558000
    640  _C1       41.6270   45.2070   45.2070    C  384  MOF        0.558000
    641  _C2        6.4580    6.4580    1.3880    C    1  MOF        0.106000
    642  _C2        6.4580    6.4580   27.2210    C    2  MOF        0.106000
    643  _C2        6.4580   32.2900    1.3880    C    3  MOF        0.106000
    644  _C2        6.4580   32.2900   27.2210    C    4  MOF        0.106000
    645  _C2       32.2900    6.4580    1.3880    C    5  MOF        0.106000
    646  _C2       32.2900    6.4580   27.2210    C    6  MOF        0.106000
    647  _C2       32.2900   32.2900    1.3880    C    7  MOF        0.106000
    648  _C2       32.2900   32.2900   27.2210    C    8  MOF        0.106000
    649  _C2       19.3740   19.3740   24.4440    C    9  MOF        0.106000
    650  _C2       19.3740   19.3740   50.2760    C   10  MOF        0.106000
    651  _C2       19.3740   45.2070   24.4440    C   11  MOF        0.106000
    652  _C2       19.3740   45.2070   50.2760    C   12  MOF        0.106000
    653  _C2       45.2070   19.3740   24.4440    C   13  MOF        0.106000
    654  _C2       45.2070   19.3740   50.2760    C   14  MOF        0.106000
    655  _C2       45.2070   45.2070   24.4440    C   15  MOF        0.106000
    656  _C2       45.2070   45.2070   50.2760    C   16  MOF        0.106000
    657  _C2       19.3740   19.3740    1.3880    C   17  MOF        0.106000
    658  _C2       19.3740   19.3740   27.2210    C   18  MOF        0.106000
    659  _C2       19.3740   45.2070    1.3880    C   19  MOF        0.106000
    660  _C2       19.3740   45.2070   27.2210    C   20  MOF        0.106000
    661  _C2       45.2070   19.3740    1.3880    C   21  MOF        0.106000
    662  _C2       45.2070   19.3740   27.2210    C   22  MOF        0.106000
    663  _C2       45.2070   45.2070    1.3880    C   23  MOF        0.106000
    664  _C2       45.2070   45.2070   27.2210    C   24  MOF        0.106000
    665  _C2        6.4580    6.4580   24.4440    C   25  MOF        0.106000
    666  _C2        6.4580    6.4580   50.2760    C   26  MOF        0.106000
    667  _C2        6.4580   32.2900   24.4440    C   27  MOF        0.106000
    668  _C2        6.4580   32.2900   50.2760    C   28  MOF        0.106000
    669  _C2       32.2900    6.4580   24.4440    C   29  MOF        0.106000
    670  _C2       32.2900    6.4580   50.2760    C   30  MOF        0.106000
    671  _C2       32.2900   32.2900   24.4440    C   31  MOF        0.106000
    672  _C2       32.2900   32.2900   50.2760    C   32  MOF        0.106000
    673  _C2       19.3740    6.4580   24.4440    C   33  MOF        0.106000
    674  _C2       19.3740    6.4580   50.2760    C   34  MOF        0.106000
    675  _C2       19.3740   32.2900   24.4440    C   35  MOF        0.106000
    676  _C2       19.3740   32.2900   50.2760    C   36  MOF        0.106000
    677  _C2       45.2070    6.4580   24.4440    C   37  MOF        0.106000
    678  _C2       45.2070    6.4580   50.2760    C   38  MOF        0.106000
    679  _C2       45.2070   32.2900   24.4440    C   39  MOF        0.106000
    680  _C2       45.2070   32.2900   50.2760    C   40  MOF        0.106000
    681  _C2        6.4580   19.3740    1.3880    C   41  MOF        0.106000
    682  _C2        6.4580   19.3740   27.2210    C   42  MOF        0.106000
    683  _C2        6.4580   45.2070    1.3880    C   43  MOF        0.106000
    684  _C2        6.4580   45.2070   27.2210    C   44  MOF        0.106000
    685  _C2       32.2900   19.3740    1.3880    C   45  MOF        0.106000
    686  _C2       32.2900   19.3740   27.2210    C   46  MOF        0.106000
    687  _C2       32.2900   45.2070    1.3880    C   47  MOF        0.106000
    688  _C2       32.2900   45.2070   27.2210    C   48  MOF        0.106000
    689  _C2        6.4580   19.3740   24.4440    C   49  MOF        0.106000
    690  _C2        6.4580   19.3740   50.2760    C   50  MOF        0.106000
    691  _C2        6.4580   45.2070   24.4440    C   51  MOF        0.106000
    692  _C2        6.4580   45.2070   50.2760    C   52  MOF        0.106000
    693  _C2       32.2900   19.3740   24.4440    C   53  MOF        0.106000
    694  _C2       32.2900   19.3740   50.2760    C   54  MOF        0.106000
    695  _C2       32.2900   45.2070   24.4440    C   55  MOF        0.106000
    696  _C2       32.2900   45.2070   50.2760    C   56  MOF        0.106000
    697  _C2       19.3740    6.4580    1.3880    C   57  MOF        0.106000
    698  _C2       19.3740    6.4580   27.2210    C   58  MOF        0.106000
    699  _C2       19.3740   32.2900    1.3880    C   59  MOF        0.106000
    700  _C2       19.3740   32.2900   27.2210    C   60  MOF        0.106000
    701  _C2       45.2070    6.4580    1.3880    C   61  MOF        0.106000
    702  _C2       45.2070    6.4580   27.2210    C   62  MOF        0.106000
    703  _C2       45.2070   32.2900    1.3880    C   63  MOF        0.106000
    704  _C2       45.2070   32.2900   27.2210    C   64  MOF        0.106000
    705  _C2        1.3880    6.4580    6.4580    C   65  MOF        0.106000
    706  _C2        1.3880    6.4580   32.2900    C   66  MOF        0.106000
    707  _C2        1.3880   32.2900    6.4580    C   67  MOF        0.106000
    708  _C2        1.3880   32.2900   32.2900    C   68  MOF        0.106000
    709  _C2       27.2210    6.4580    6.4580    C   69  MOF        0.106000
    710  _C2       27.2210    6.4580   32.2900    C   70  MOF        0.106000
    711  _C2       27.2210   32.2900    6.4580    C   71  MOF        0.106000
    712  _C2       27.2210   32.2900   32.2900    C   72  MOF        0.106000
    713  _C2       24.4440   19.3740   19.3740    C   73  MOF        0.106000
    714  _C2       24.4440   19.3740   45.2070    C   74  MOF        0.106000
    715  _C2       24.4440   45.2070   19.3740    C   75  MOF        0.106000
    716  _C2       24.4440   45.2070   45.2070    C   76  MOF        0.106000
    717  _C2       50.2760   19.3740   19.3740    C   77  MOF        0.106000
    718  _C2       50.2760   19.3740   45.2070    C   78  MOF        0.106000
    719  _C2       50.2760   45.2070   19.3740    C   79  MOF        0.106000
    720  _C2       50.2760   45.2070   45.2070    C   80  MOF        0.106000
    721  _C2        1.3880   19.3740   19.3740    C   81  MOF        0.106000
    722  _C2        1.3880   19.3740   45.2070    C   82  MOF        0.106000
    723  _C2        1.3880   45.2070   19.3740    C   83  MOF        0.106000
    724  _C2        1.3880   45.2070   45.2070    C   84  MOF        0.106000
    725  _C2       27.2210   19.3740   19.3740    C   85  MOF        0.106000
    726  _C2       27.2210   19.3740   45.2070    C   86  MOF        0.106000
    727  _C2       27.2210   45.2070   19.3740    C   87  MOF        0.106000
    728  _C2       27.2210   45.2070   45.2070    C   88  MOF        0.106000
    729  _C2       24.4440    6.4580    6.4580    C   89  MOF        0.106000
    730  _C2       24.4440    6.4580   32.2900    C   90  MOF        0.106000
    731  _C2       24.4440   32.2900    6.4580    C   91  MOF        0.106000
    732  _C2       24.4440   32.2900   32.2900    C   92  MOF        0.106000
    733  _C2       50.2760    6.4580    6.4580    C   93  MOF        0.106000
    734  _C2       50.2760    6.4580   32.2900    C   94  MOF        0.106000
    735  _C2       50.2760   32.2900    6.4580    C   95  MOF        0.106000
    736  _C2       50.2760   32.2900   32.2900    C   96  MOF        0.106000
    737  _C2       24.4440   19.3740    6.4580    C   97  MOF        0.106000
    738  _C2       24.4440   19.3740   32.2900    C   98  MOF        0.106000
    739  _C2       24.4440   45.2070    6.4580    C   99  MOF        0.106000
    740  _C2       24.4440   45.2070   32.2900    C  100  MOF        0.106000
    741  _C2       50.2760   19.3740    6.4580    C  101  MOF        0.106000
    742  _C2       50.2760   19.3740   32.2900    C  102  MOF        0.106000
    743  _C2       50.2760   45.2070    6.4580    C  103  MOF        0.106000
    744  _C2       50.2760   45.2070   32.2900    C  104  MOF        0.106000
    745  _C2        1.3880    6.4580   19.3740    C  105  MOF        0.106000
    746  _C2        1.3880    6.4580   45.2070    C  106  MOF        0.106000
    747  _C2        1.3880   32.2900   19.3740    C  107  MOF        0.106000
    748  _C2        1.3880   32.2900   45.2070    C  108  MOF        0.106000
    749  _C2       27.2210    6.4580   19.3740    C  109  MOF        0.106000
    750  _C2       27.2210    6.4580   45.2070    C  110  MOF        0.106000
    751  _C2       27.2210   32.2900   19.3740    C  111  MOF        0.106000
    752  _C2       27.2210   32.2900   45.2070    C  112  MOF        0.106000
    753  _C2       24.4440    6.4580   19.3740    C  113  MOF        0.106000
    754  _C2       24.4440    6.4580   45.2070    C  114  MOF        0.106000
    755  _C2       24.4440   32.2900   19.3740    C  115  MOF        0.106000
    756  _C2       24.4440   32.2900   45.2070    C  116  MOF        0.106000
    757  _C2       50.2760    6.4580   19.3740    C  117  MOF        0.106000
    758  _C2       50.2760    6.4580   45.2070    C  118  MOF        0.106000
    759  _C2       50.2760   32.2900   19.3740    C  119  MOF        0.106000
    760  _C2       50.2760   32.2900   45.2070    C  120  MOF        0.106000
    761  _C2        1.3880   19.3740    6.4580    C  121  MOF        0.106000
    762  _C2        1.3880   19.3740   32.2900    C  122  MOF        0.106000
    763  _C2        1.3880   45.2070    6.4580    C  123  MOF        0.106000
    764  _C2        1.3880   45.2070   32.2900    C  124  MOF        0.106000
    765  _C2       27.2210   19.3740    6.4580    C  125  MOF        0.106000
    766  _C2       27.2210   19.3740   32.2900    C  126  MOF        0.106000
    767  _C2       27.2210   45.2070    6.4580    C  127  MOF        0.106000
    768  _C2       27.2210   45.2070   32.2900    C  128  MOF        0.106000
    769  _C2        6.4580    1.3880    6.4580    C  129  MOF        0.106000
    770  _C2        6.4580    1.3880   32.2900    C  130  MOF        0.106000
    771  _C2        6.4580   27.2210    6.4580    C  131  MOF        0.106000
    772  _C2        6.4580   27.2210   32.2900    C  132  MOF        0.106000
    773  _C2       32.2900    1.3880    6.4580    C  133  MOF        0.106000
    774  _C2       32.2900    1.3880   32.2900    C  134  MOF        0.106000
    775  _C2       32.2900   27.2210    6.4580    C  135  MOF        0.106000
    776  _C2       32.2900   27.2210   32.2900    C  136  MOF        0.106000
    777  _C2       19.3740   24.4440   19.3740    C  137  MOF        0.106000
    778  _C2       19.3740   24.4440   45.2070    C  138  MOF        0.106000
    779  _C2       19.3740   50.2760   19.3740    C  139  MOF        0.106000
    780  _C2       19.3740   50.2760   45.2070    C  140  MOF        0.106000
    781  _C2       45.2070   24.4440   19.3740    C  141  MOF        0.106000
    782  _C2       45.2070   24.4440   45.2070    C  142  MOF        0.106000
    783  _C2       45.2070   50.2760   19.3740    C  143  MOF        0.106000
    784  _C2       45.2070   50.2760   45.2070    C  144  MOF        0.106000
    785  _C2       19.3740    1.3880   19.3740    C  145  MOF        0.106000
    786  _C2       19.3740    1.3880   45.2070    C  146  MOF        0.106000
    787  _C2       19.3740   27.2210   19.3740    C  147  MOF        0.106000
    788  _C2       19.3740   27.2210   45.2070    C  148  MOF        0.106000
    789  _C2       45.2070    1.3880   19.3740    C  149  MOF        0.106000
    790  _C2       45.2070    1.3880   45.2070    C  150  MOF        0.106000
    791  _C2       45.2070   27.2210   19.3740    C  151  MOF        0.106000
    792  _C2       45.2070   27.2210   45.2070    C  152  MOF        0.106000
    793  _C2        6.4580   24.4440    6.4580    C  153  MOF        0.106000
    794  _C2        6.4580   24.4440   32.2900    C  154  MOF        0.106000
    795  _C2        6.4580   50.2760    6.4580    C  155  MOF        0.106000
    796  _C2        6.4580   50.2760   32.2900    C  156  MOF        0.106000
    797  _C2       32.2900   24.4440    6.4580    C  157  MOF        0.106000
    798  _C2       32.2900   24.4440   32.2900    C  158  MOF        0.106000
    799  _C2       32.2900   50.2760    6.4580    C  159  MOF        0.106000
    800  _C2       32.2900   50.2760   32.2900    C  160  MOF        0.106000
    801  _C2        6.4580   24.4440   19.3740    C  161  MOF        0.106000
    802  _C2        6.4580   24.4440   45.2070    C  162  MOF        0.106000
    803  _C2        6.4580   50.2760   19.3740    C  163  MOF        0.106000
    804  _C2        6.4580   50.2760   45.2070    C  164  MOF        0.106000
    805  _C2       32.2900   24.4440   19.3740    C  165  MOF        0.106000
    806  _C2       32.2900   24.4440   45.2070    C  166  MOF        0.106000
    807  _C2       32.2900   50.2760   19.3740    C  167  MOF        0.106000
    808  _C2       32.2900   50.2760   45.2070    C  168  MOF        0.106000
    809  _C2       19.3740    1.3880    6.4580    C  169  MOF        0.106000
    810  _C2       19.3740    1.3880   32.2900    C  170  MOF        0.106000
    811  _C2       19.3740   27.2210    6.4580    C  171  MOF        0.106000
    812  _C2       19.3740   27.2210   32.2900    C  172  MOF        0.106000
    813  _C2       45.2070    1.3880    6.4580    C  173  MOF        0.106000
    814  _C2       45.2070    1.3880   32.2900    C  174  MOF        0.106000
    815  _C2       45.2070   27.2210    6.4580    C  175  MOF        0.106000
    816  _C2       45.2070   27.2210   32.2900    C  176  MOF        0.106000
    817  _C2       19.3740   24.4440    6.4580    C  177  MOF        0.106000
    818  _C2       19.3740   24.4440   32.2900    C  178  MOF        0.106000
    819  _C2       19.3740   50.2760    6.4580    C  179  MOF        0.106000
    820  _C2       19.3740   50.2760   32.2900    C  180  MOF        0.106000
    821  _C2       45.2070   24.4440    6.4580    C  181  MOF        0.106000
    822  _C2       45.2070   24.4440   32.2900    C  182  MOF        0.106000
    823  _C2       45.2070   50.2760    6.4580    C  183  MOF        0.106000
    824  _C2       45.2070   50.2760   32.2900    C  184  MOF        0.106000
    825  _C2        6.4580    1.3880   19.3740    C  185  MOF        0.106000
    826  _C2        6.4580    1.3880   45.2070    C  186  MOF        0.106000
    827  _C2        6.4580   27.2210   19.3740    C  187  MOF        0.106000
    828  _C2        6.4580   27.2210   45.2070    C  188  MOF        0.106000
    829  _C2       32.2900    1.3880   19.3740    C  189  MOF        0.106000
    830  _C2       32.2900    1.3880   45.2070    C  190  MOF        0.106000
    831  _C2       32.2900   27.2210   19.3740    C  191  MOF        0.106000
    832  _C2       32.2900   27.2210   45.2070    C  192  MOF        0.106000
    833  _C2        6.4580   19.3740   14.3050    C  193  MOF        0.106000
    834  _C2        6.4580   19.3740   40.1370    C  194  MOF        0.106000
    835  _C2        6.4580   45.2070   14.3050    C  195  MOF        0.106000
    836  _C2        6.4580   45.2070   40.1370    C  196  MOF        0.106000
    837  _C2       32.2900   19.3740   14.3050    C  197  MOF        0.106000
    838  _C2       32.2900   19.3740   40.1370    C  198  MOF        0.106000
    839  _C2       32.2900   45.2070   14.3050    C  199  MOF        0.106000
    840  _C2       32.2900   45.2070   40.1370    C  200  MOF        0.106000
    841  _C2       19.3740    6.4580   11.5280    C  201  MOF        0.106000
    842  _C2       19.3740    6.4580   37.3600    C  202  MOF        0.106000
    843  _C2       19.3740   32.2900   11.5280    C  203  MOF        0.106000
    844  _C2       19.3740   32.2900   37.3600    C  204  MOF        0.106000
    845  _C2       45.2070    6.4580   11.5280    C  205  MOF        0.106000
    846  _C2       45.2070    6.4580   37.3600    C  206  MOF        0.106000
    847  _C2       45.2070   32.2900   11.5280    C  207  MOF        0.106000
    848  _C2       45.2070   32.2900   37.3600    C  208  MOF        0.106000
    849  _C2       19.3740    6.4580   14.3050    C  209  MOF        0.106000
    850  _C2       19.3740    6.4580   40.1370    C  210  MOF        0.106000
    851  _C2       19.3740   32.2900   14.3050    C  211  MOF        0.106000
    852  _C2       19.3740   32.2900   40.1370    C  212  MOF        0.106000
    853  _C2       45.2070    6.4580   14.3050    C  213  MOF        0.106000
    854  _C2       45.2070    6.4580   40.1370    C  214  MOF        0.106000
    855  _C2       45.2070   32.2900   14.3050    C  215  MOF        0.106000
    856  _C2       45.2070   32.2900   40.1370    C  216  MOF        0.106000
    857  _C2        6.4580   19.3740   11.5280    C  217  MOF        0.106000
    858  _C2        6.4580   19.3740   37.3600    C  218  MOF        0.106000
    859  _C2        6.4580   45.2070   11.5280    C  219  MOF        0.106000
    860  _C2        6.4580   45.2070   37.3600    C  220  MOF        0.106000
    861  _C2       32.2900   19.3740   11.5280    C  221  MOF        0.106000
    862  _C2       32.2900   19.3740   37.3600    C  222  MOF        0.106000
    863  _C2       32.2900   45.2070   11.5280    C  223  MOF        0.106000
    864  _C2       32.2900   45.2070   37.3600    C  224  MOF        0.106000
    865  _C2       19.3740   19.3740   11.5280    C  225  MOF        0.106000
    866  _C2       19.3740   19.3740   37.3600    C  226  MOF        0.106000
    867  _C2       19.3740   45.2070   11.5280    C  227  MOF        0.106000
    868  _C2       19.3740   45.2070   37.3600    C  228  MOF        0.106000
    869  _C2       45.2070   19.3740   11.5280    C  229  MOF        0.106000
    870  _C2       45.2070   19.3740   37.3600    C  230  MOF        0.106000
    871  _C2       45.2070   45.2070   11.5280    C  231  MOF        0.106000
    872  _C2       45.2070   45.2070   37.3600    C  232  MOF        0.106000
    873  _C2        6.4580    6.4580   14.3050    C  233  MOF        0.106000
    874  _C2        6.4580    6.4580   40.1370    C  234  MOF        0.106000
    875  _C2        6.4580   32.2900   14.3050    C  235  MOF        0.106000
    876  _C2        6.4580   32.2900   40.1370    C  236  MOF        0.106000
    877  _C2       32.2900    6.4580   14.3050    C  237  MOF        0.106000
    878  _C2       32.2900    6.4580   40.1370    C  238  MOF        0.106000
    879  _C2       32.2900   32.2900   14.3050    C  239  MOF        0.106000
    880  _C2       32.2900   32.2900   40.1370    C  240  MOF        0.106000
    881  _C2        6.4580    6.4580   11.5280    C  241  MOF        0.106000
    882  _C2        6.4580    6.4580   37.3600    C  242  MOF        0.106000
    883  _C2        6.4580   32.2900   11.5280    C  243  MOF        0.106000
    884  _C2        6.4580   32.2900   37.3600    C  244  MOF        0.106000
    885  _C2       32.2900    6.4580   11.5280    C  245  MOF        0.106000
    886  _C2       32.2900    6.4580   37.3600    C  246  MOF        0.106000
    887  _C2       32.2900   32.2900   11.5280    C  247  MOF        0.106000
    888  _C2       32.2900   32.2900   37.3600    C  248  MOF        0.106000
    889  _C2       19.3740   19.3740   14.3050    C  249  MOF        0.106000
    890  _C2       19.3740   19.3740   40.1370    C  250  MOF        0.106000
    891  _C2       19.3740   45.2070   14.3050    C  251  MOF        0.106000
    892  _C2       19.3740   45.2070   40.1370    C  252  MOF        0.106000
    893  _C2       45.2070   19.3740   14.3050    C  253  MOF        0.106000
    894  _C2       45.2070   19.3740   40.1370    C  254  MOF        0.106000
    895  _C2       45.2070   45.2070   14.3050    C  255  MOF        0.106000
    896  _C2       45.2070   45.2070   40.1370    C  256  MOF        0.106000
    897  _C2        6.4580   14.3050   19.3740    C  257  MOF        0.106000
    898  _C2        6.4580   14.3050   45.2070    C  258  MOF        0.106000
    899  _C2        6.4580   40.1370   19.3740    C  259  MOF        0.106000
    900  _C2        6.4580   40.1370   45.2070    C  260  MOF        0.106000
    901  _C2       32.2900   14.3050   19.3740    C  261  MOF        0.106000
    902  _C2       32.2900   14.3050   45.2070    C  262  MOF        0.106000
    903  _C2       32.2900   40.1370   19.3740    C  263  MOF        0.106000
    904  _C2       32.2900   40.1370   45.2070    C  264  MOF        0.106000
    905  _C2       19.3740   11.5280    6.4580    C  265  MOF        0.106000
    906  _C2       19.3740   11.5280   32.2900    C  266  MOF        0.106000
    907  _C2       19.3740   37.3600    6.4580    C  267  MOF        0.106000
    908  _C2       19.3740   37.3600   32.2900    C  268  MOF        0.106000
    909  _C2       45.2070   11.5280    6.4580    C  269  MOF        0.106000
    910  _C2       45.2070   11.5280   32.2900    C  270  MOF        0.106000
    911  _C2       45.2070   37.3600    6.4580    C  271  MOF        0.106000
    912  _C2       45.2070   37.3600   32.2900    C  272  MOF        0.106000
    913  _C2       19.3740   14.3050    6.4580    C  273  MOF        0.106000
    914  _C2       19.3740   14.3050   32.2900    C  274  MOF        0.106000
    915  _C2       19.3740   40.1370    6.4580    C  275  MOF        0.106000
    916  _C2       19.3740   40.1370   32.2900    C  276  MOF        0.106000
    917  _C2       45.2070   14.3050    6.4580    C  277  MOF        0.106000
    918  _C2       45.2070   14.3050   32.2900    C  278  MOF        0.106000
    919  _C2       45.2070   40.1370    6.4580    C  279  MOF        0.106000
    920  _C2       45.2070   40.1370   32.2900    C  280  MOF        0.106000
    921  _C2        6.4580   11.5280   19.3740    C  281  MOF        0.106000
    922  _C2        6.4580   11.5280   45.2070    C  282  MOF        0.106000
    923  _C2        6.4580   37.3600   19.3740    C  283  MOF        0.106000
    924  _C2        6.4580   37.3600   45.2070    C  284  MOF        0.106000
    925  _C2       32.2900   11.5280   19.3740    C  285  MOF        0.106000
    926  _C2       32.2900   11.5280   45.2070    C  286  MOF        0.106000
    927  _C2       32.2900   37.3600   19.3740    C  287  MOF        0.106000
    928  _C2       32.2900   37.3600   45.2070    C  288  MOF        0.106000
    929  _C2        6.4580   11.5280    6.4580    C  289  MOF        0.106000
    930  _C2        6.4580   11.5280   32.2900    C  290  MOF        0.106000
    931  _C2        6.4580   37.3600    6.4580    C  291  MOF        0.106000
    932  _C2        6.4580   37.3600   32.2900    C  292  MOF        0.106000
    933  _C2       32.2900   11.5280    6.4580    C  293  MOF        0.106000
    934  _C2       32.2900   11.5280   32.2900    C  294  MOF        0.106000
    935  _C2       32.2900   37.3600    6.4580    C  295  MOF        0.106000
    936  _C2       32.2900   37.3600   32.2900    C  296  MOF        0.106000
    937  _C2       19.3740   14.3050   19.3740    C  297  MOF        0.106000
    938  _C2       19.3740   14.3050   45.2070    C  298  MOF        0.106000
    939  _C2       19.3740   40.1370   19.3740    C  299  MOF        0.106000
    940  _C2       19.3740   40.1370   45.2070    C  300  MOF        0.106000
    941  _C2       45.2070   14.3050   19.3740    C  301  MOF        0.106000
    942  _C2       45.2070   14.3050   45.2070    C  302  MOF        0.106000
    943  _C2       45.2070   40.1370   19.3740    C  303  MOF        0.106000
    944  _C2       45.2070   40.1370   45.2070    C  304  MOF        0.106000
    945  _C2       19.3740   11.5280   19.3740    C  305  MOF        0.106000
    946  _C2       19.3740   11.5280   45.2070    C  306  MOF        0.106000
    947  _C2       19.3740   37.3600   19.3740    C  307  MOF        0.106000
    948  _C2       19.3740   37.3600   45.2070    C  308  MOF        0.106000
    949  _C2       45.2070   11.5280   19.3740    C  309  MOF        0.106000
    950  _C2       45.2070   11.5280   45.2070    C  310  MOF        0.106000
    951  _C2       45.2070   37.3600   19.3740    C  311  MOF        0.106000
    952  _C2       45.2070   37.3600   45.2070    C  312  MOF        0.106000
    953  _C2        6.4580   14.3050    6.4580    C  313  MOF        0.106000
    954  _C2        6.4580   14.3050   32.2900    C  314  MOF        0.106000
    955  _C2        6.4580   40.1370    6.4580    C  315  MOF        0.106000
    956  _C2        6.4580   40.1370   32.2900    C  316  MOF        0.106000
    957  _C2       32.2900   14.3050    6.4580    C  317  MOF        0.106000
    958  _C2       32.2900   14.3050   32.2900    C  318  MOF        0.106000
    959  _C2       32.2900   40.1370    6.4580    C  319  MOF        0.106000
    960  _C2       32.2900   40.1370   32.2900    C  320  MOF        0.106000
    961  _C2       14.3050    6.4580   19.3740    C  321  MOF        0.106000
    962  _C2       14.3050    6.4580   45.2070    C  322  MOF        0.106000
    963  _C2       14.3050   32.2900   19.3740    C  323  MOF        0.106000
    964  _C2       14.3050   32.2900   45.2070    C  324  MOF        0.106000
    965  _C2       40.1370    6.4580   19.3740    C  325  MOF        0.106000
    966  _C2       40.1370    6.4580   45.2070    C  326  MOF        0.106000
    967  _C2       40.1370   32.2900   19.3740    C  327  MOF        0.106000
    968  _C2       40.1370   32.2900   45.2070    C  328  MOF        0.106000
    969  _C2       11.5280   19.3740    6.4580    C  329  MOF        0.106000
    970  _C2       11.5280   19.3740   32.2900    C  330  MOF        0.106000
    971  _C2       11.5280   45.2070    6.4580    C  331  MOF        0.106000
    972  _C2       11.5280   45.2070   32.2900    C  332  MOF        0.106000
    973  _C2       37.3600   19.3740    6.4580    C  333  MOF        0.106000
    974  _C2       37.3600   19.3740   32.2900    C  334  MOF        0.106000
    975  _C2       37.3600   45.2070    6.4580    C  335  MOF        0.106000
    976  _C2       37.3600   45.2070   32.2900    C  336  MOF        0.106000
    977  _C2       14.3050   19.3740    6.4580    C  337  MOF        0.106000
    978  _C2       14.3050   19.3740   32.2900    C  338  MOF        0.106000
    979  _C2       14.3050   45.2070    6.4580    C  339  MOF        0.106000
    980  _C2       14.3050   45.2070   32.2900    C  340  MOF        0.106000
    981  _C2       40.1370   19.3740    6.4580    C  341  MOF        0.106000
    982  _C2       40.1370   19.3740   32.2900    C  342  MOF        0.106000
    983  _C2       40.1370   45.2070    6.4580    C  343  MOF        0.106000
    984  _C2       40.1370   45.2070   32.2900    C  344  MOF        0.106000
    985  _C2       11.5280    6.4580   19.3740    C  345  MOF        0.106000
    986  _C2       11.5280    6.4580   45.2070    C  346  MOF        0.106000
    987  _C2       11.5280   32.2900   19.3740    C  347  MOF        0.106000
    988  _C2       11.5280   32.2900   45.2070    C  348  MOF        0.106000
    989  _C2       37.3600    6.4580   19.3740    C  349  MOF        0.106000
    990  _C2       37.3600    6.4580   45.2070    C  350  MOF        0.106000
    991  _C2       37.3600   32.2900   19.3740    C  351  MOF        0.106000
    992  _C2       37.3600   32.2900   45.2070    C  352  MOF        0.106000
    993  _C2       11.5280   19.3740   19.3740    C  353  MOF        0.106000
    994  _C2       11.5280   19.3740   45.2070    C  354  MOF        0.106000
    995  _C2       11.5280   45.2070   19.3740    C  355  MOF        0.106000
    996  _C2       11.5280   45.2070   45.2070    C  356  MOF        0.106000
    997  _C2       37.3600   19.3740   19.3740    C  357  MOF        0.106000
    998  _C2       37.3600   19.3740   45.2070    C  358  MOF        0.106000
    999  _C2       37.3600   45.2070   19.3740    C  359  MOF        0.106000
   1000  _C2       37.3600   45.2070   45.2070    C  360  MOF        0.106000
   1001  _C2       14.3050    6.4580    6.4580    C  361  MOF        0.106000
   1002  _C2       14.3050    6.4580   32.2900    C  362  MOF        0.106000
   1003  _C2       14.3050   32.2900    6.4580    C  363  MOF        0.106000
   1004  _C2       14.3050   32.2900   32.2900    C  364  MOF        0.106000
   1005  _C2       40.1370    6.4580    6.4580    C  365  MOF        0.106000
   1006  _C2       40.1370    6.4580   32.2900    C  366  MOF        0.106000
   1007  _C2       40.1370   32.2900    6.4580    C  367  MOF        0.106000
   1008  _C2       40.1370   32.2900   32.2900    C  368  MOF        0.106000
   1009  _C2       11.5280    6.4580    6.4580    C  369  MOF        0.106000
   1010  _C2       11.5280    6.4580   32.2900    C  370  MOF        0.106000
   1011  _C2       11.5280   32.2900    6.4580    C  371  MOF        0.106000
   1012  _C2       11.5280   32.2900   32.2900    C  372  MOF        0.106000
   1013  _C2       37.3600    6.4580    6.4580    C  373  MOF        0.106000
   1014  _C2       37.3600    6.4580   32.2900    C  374  MOF        0.106000
   1015  _C2       37.3600   32.2900    6.4580    C  375  MOF        0.106000
   1016  _C2       37.3600   32.2900   32.2900    C  376  MOF        0.106000
   1017  _C2       14.3050   19.3740   19.3740    C  377  MOF        0.106000
   1018  _C2       14.3050   19.3740   45.2070    C  378  MOF        0.106000
   1019  _C2       14.3050   45.2070   19.3740    C  379  MOF        0.106000
   1020  _C2       14.3050   45.2070   45.2070    C  380  MOF        0.106000
   1021  _C2       40.1370   19.3740   19.3740    C  381  MOF        0.106000
   1022  _C2       40.1370   19.3740   45.2070    C  382  MOF        0.106000
   1023  _C2       40.1370   45.2070   19.3740    C  383  MOF        0.106000
   1024  _C2       40.1370   45.2070   45.2070    C  384  MOF        0.106000
   1025  _C3        5.6300    7.2860    0.6870    C    1  MOF        -0.167000
   1026  _C3        5.6300    7.2860   26.5190    C    2  MOF        -0.167000
   1027  _C3        5.6300   33.1190    0.6870    C    3  MOF        -0.167000
   1028  _C3        5.6300   33.1190   26.5190    C    4  MOF        -0.167000
   1029  _C3       31.4620    7.2860    0.6870    C    5  MOF        -0.167000
   1030  _C3       31.4620    7.2860   26.5190    C    6  MOF        -0.167000
   1031  _C3       31.4620   33.1190    0.6870    C    7  MOF        -0.167000
   1032  _C3       31.4620   33.1190   26.5190    C    8  MOF        -0.167000
   1033  _C3       20.2020   18.5460   25.1460    C    9  MOF        -0.167000
   1034  _C3       20.2020   18.5460   50.9780    C   10  MOF        -0.167000
   1035  _C3       20.2020   44.3780   25.1460    C   11  MOF        -0.167000
   1036  _C3       20.2020   44.3780   50.9780    C   12  MOF        -0.167000
   1037  _C3       46.0350   18.5460   25.1460    C   13  MOF        -0.167000
   1038  _C3       46.0350   18.5460   50.9780    C   14  MOF        -0.167000
   1039  _C3       46.0350   44.3780   25.1460    C   15  MOF        -0.167000
   1040  _C3       46.0350   44.3780   50.9780    C   16  MOF        -0.167000
   1041  _C3       20.2020   18.5460    0.6870    C   17  MOF        -0.167000
   1042  _C3       20.2020   18.5460   26.5190    C   18  MOF        -0.167000
   1043  _C3       20.2020   44.3780    0.6870    C   19  MOF        -0.167000
   1044  _C3       20.2020   44.3780   26.5190    C   20  MOF        -0.167000
   1045  _C3       46.0350   18.5460    0.6870    C   21  MOF        -0.167000
   1046  _C3       46.0350   18.5460   26.5190    C   22  MOF        -0.167000
   1047  _C3       46.0350   44.3780    0.6870    C   23  MOF        -0.167000
   1048  _C3       46.0350   44.3780   26.5190    C   24  MOF        -0.167000
   1049  _C3        5.6300    7.2860   25.1460    C   25  MOF        -0.167000
   1050  _C3        5.6300    7.2860   50.9780    C   26  MOF        -0.167000
   1051  _C3        5.6300   33.1190   25.1460    C   27  MOF        -0.167000
   1052  _C3        5.6300   33.1190   50.9780    C   28  MOF        -0.167000
   1053  _C3       31.4620    7.2860   25.1460    C   29  MOF        -0.167000
   1054  _C3       31.4620    7.2860   50.9780    C   30  MOF        -0.167000
   1055  _C3       31.4620   33.1190   25.1460    C   31  MOF        -0.167000
   1056  _C3       31.4620   33.1190   50.9780    C   32  MOF        -0.167000
   1057  _C3       20.2020    7.2860   25.1460    C   33  MOF        -0.167000
   1058  _C3       20.2020    7.2860   50.9780    C   34  MOF        -0.167000
   1059  _C3       20.2020   33.1190   25.1460    C   35  MOF        -0.167000
   1060  _C3       20.2020   33.1190   50.9780    C   36  MOF        -0.167000
   1061  _C3       46.0350    7.2860   25.1460    C   37  MOF        -0.167000
   1062  _C3       46.0350    7.2860   50.9780    C   38  MOF        -0.167000
   1063  _C3       46.0350   33.1190   25.1460    C   39  MOF        -0.167000
   1064  _C3       46.0350   33.1190   50.9780    C   40  MOF        -0.167000
   1065  _C3        5.6300   18.5460    0.6870    C   41  MOF        -0.167000
   1066  _C3        5.6300   18.5460   26.5190    C   42  MOF        -0.167000
   1067  _C3        5.6300   44.3780    0.6870    C   43  MOF        -0.167000
   1068  _C3        5.6300   44.3780   26.5190    C   44  MOF        -0.167000
   1069  _C3       31.4620   18.5460    0.6870    C   45  MOF        -0.167000
   1070  _C3       31.4620   18.5460   26.5190    C   46  MOF        -0.167000
   1071  _C3       31.4620   44.3780    0.6870    C   47  MOF        -0.167000
   1072  _C3       31.4620   44.3780   26.5190    C   48  MOF        -0.167000
   1073  _C3        5.6300   18.5460   25.1460    C   49  MOF        -0.167000
   1074  _C3        5.6300   18.5460   50.9780    C   50  MOF        -0.167000
   1075  _C3        5.6300   44.3780   25.1460    C   51  MOF        -0.167000
   1076  _C3        5.6300   44.3780   50.9780    C   52  MOF        -0.167000
   1077  _C3       31.4620   18.5460   25.1460    C   53  MOF        -0.167000
   1078  _C3       31.4620   18.5460   50.9780    C   54  MOF        -0.167000
   1079  _C3       31.4620   44.3780   25.1460    C   55  MOF        -0.167000
   1080  _C3       31.4620   44.3780   50.9780    C   56  MOF        -0.167000
   1081  _C3       20.2020    7.2860    0.6870    C   57  MOF        -0.167000
   1082  _C3       20.2020    7.2860   26.5190    C   58  MOF        -0.167000
   1083  _C3       20.2020   33.1190    0.6870    C   59  MOF        -0.167000
   1084  _C3       20.2020   33.1190   26.5190    C   60  MOF        -0.167000
   1085  _C3       46.0350    7.2860    0.6870    C   61  MOF        -0.167000
   1086  _C3       46.0350    7.2860   26.5190    C   62  MOF        -0.167000
   1087  _C3       46.0350   33.1190    0.6870    C   63  MOF        -0.167000
   1088  _C3       46.0350   33.1190   26.5190    C   64  MOF        -0.167000
   1089  _C3        0.6870    5.6300    7.2860    C   65  MOF        -0.167000
   1090  _C3        0.6870    5.6300   33.1190    C   66  MOF        -0.167000
   1091  _C3        0.6870   31.4620    7.2860    C   67  MOF        -0.167000
   1092  _C3        0.6870   31.4620   33.1190    C   68  MOF        -0.167000
   1093  _C3       26.5190    5.6300    7.2860    C   69  MOF        -0.167000
   1094  _C3       26.5190    5.6300   33.1190    C   70  MOF        -0.167000
   1095  _C3       26.5190   31.4620    7.2860    C   71  MOF        -0.167000
   1096  _C3       26.5190   31.4620   33.1190    C   72  MOF        -0.167000
   1097  _C3       25.1460   20.2020   18.5460    C   73  MOF        -0.167000
   1098  _C3       25.1460   20.2020   44.3780    C   74  MOF        -0.167000
   1099  _C3       25.1460   46.0350   18.5460    C   75  MOF        -0.167000
   1100  _C3       25.1460   46.0350   44.3780    C   76  MOF        -0.167000
   1101  _C3       50.9780   20.2020   18.5460    C   77  MOF        -0.167000
   1102  _C3       50.9780   20.2020   44.3780    C   78  MOF        -0.167000
   1103  _C3       50.9780   46.0350   18.5460    C   79  MOF        -0.167000
   1104  _C3       50.9780   46.0350   44.3780    C   80  MOF        -0.167000
   1105  _C3        0.6870   20.2020   18.5460    C   81  MOF        -0.167000
   1106  _C3        0.6870   20.2020   44.3780    C   82  MOF        -0.167000
   1107  _C3        0.6870   46.0350   18.5460    C   83  MOF        -0.167000
   1108  _C3        0.6870   46.0350   44.3780    C   84  MOF        -0.167000
   1109  _C3       26.5190   20.2020   18.5460    C   85  MOF        -0.167000
   1110  _C3       26.5190   20.2020   44.3780    C   86  MOF        -0.167000
   1111  _C3       26.5190   46.0350   18.5460    C   87  MOF        -0.167000
   1112  _C3       26.5190   46.0350   44.3780    C   88  MOF        -0.167000
   1113  _C3       25.1460    5.6300    7.2860    C   89  MOF        -0.167000
   1114  _C3       25.1460    5.6300   33.1190    C   90  MOF        -0.167000
   1115  _C3       25.1460   31.4620    7.2860    C   91  MOF        -0.167000
   1116  _C3       25.1460   31.4620   33.1190    C   92  MOF        -0.167000
   1117  _C3       50.9780    5.6300    7.2860    C   93  MOF        -0.167000
   1118  _C3       50.9780    5.6300   33.1190    C   94  MOF        -0.167000
   1119  _C3       50.9780   31.4620    7.2860    C   95  MOF        -0.167000
   1120  _C3       50.9780   31.4620   33.1190    C   96  MOF        -0.167000
   1121  _C3       25.1460   20.2020    7.2860    C   97  MOF        -0.167000
   1122  _C3       25.1460   20.2020   33.1190    C   98  MOF        -0.167000
   1123  _C3       25.1460   46.0350    7.2860    C   99  MOF        -0.167000
   1124  _C3       25.1460   46.0350   33.1190    C  100  MOF        -0.167000
   1125  _C3       50.9780   20.2020    7.2860    C  101  MOF        -0.167000
   1126  _C3       50.9780   20.2020   33.1190    C  102  MOF        -0.167000
   1127  _C3       50.9780   46.0350    7.2860    C  103  MOF        -0.167000
   1128  _C3       50.9780   46.0350   33.1190    C  104  MOF        -0.167000
   1129  _C3        0.6870    5.6300   18.5460    C  105  MOF        -0.167000
   1130  _C3        0.6870    5.6300   44.3780    C  106  MOF        -0.167000
   1131  _C3        0.6870   31.4620   18.5460    C  107  MOF        -0.167000
   1132  _C3        0.6870   31.4620   44.3780    C  108  MOF        -0.167000
   1133  _C3       26.5190    5.6300   18.5460    C  109  MOF        -0.167000
   1134  _C3       26.5190    5.6300   44.3780    C  110  MOF        -0.167000
   1135  _C3       26.5190   31.4620   18.5460    C  111  MOF        -0.167000
   1136  _C3       26.5190   31.4620   44.3780    C  112  MOF        -0.167000
   1137  _C3       25.1460    5.6300   18.5460    C  113  MOF        -0.167000
   1138  _C3       25.1460    5.6300   44.3780    C  114  MOF        -0.167000
   1139  _C3       25.1460   31.4620   18.5460    C  115  MOF        -0.167000
   1140  _C3       25.1460   31.4620   44.3780    C  116  MOF        -0.167000
   1141  _C3       50.9780    5.6300   18.5460    C  117  MOF        -0.167000
   1142  _C3       50.9780    5.6300   44.3780    C  118  MOF        -0.167000
   1143  _C3       50.9780   31.4620   18.5460    C  119  MOF        -0.167000
   1144  _C3       50.9780   31.4620   44.3780    C  120  MOF        -0.167000
   1145  _C3        0.6870   20.2020    7.2860    C  121  MOF        -0.167000
   1146  _C3        0.6870   20.2020   33.1190    C  122  MOF        -0.167000
   1147  _C3        0.6870   46.0350    7.2860    C  123  MOF        -0.167000
   1148  _C3        0.6870   46.0350   33.1190    C  124  MOF        -0.167000
   1149  _C3       26.5190   20.2020    7.2860    C  125  MOF        -0.167000
   1150  _C3       26.5190   20.2020   33.1190    C  126  MOF        -0.167000
   1151  _C3       26.5190   46.0350    7.2860    C  127  MOF        -0.167000
   1152  _C3       26.5190   46.0350   33.1190    C  128  MOF        -0.167000
   1153  _C3        7.2860    0.6870    5.6300    C  129  MOF        -0.167000
   1154  _C3        7.2860    0.6870   31.4620    C  130  MOF        -0.167000
   1155  _C3        7.2860   26.5190    5.6300    C  131  MOF        -0.167000
   1156  _C3        7.2860   26.5190   31.4620    C  132  MOF        -0.167000
   1157  _C3       33.1190    0.6870    5.6300    C  133  MOF        -0.167000
   1158  _C3       33.1190    0.6870   31.4620    C  134  MOF        -0.167000
   1159  _C3       33.1190   26.5190    5.6300    C  135  MOF        -0.167000
   1160  _C3       33.1190   26.5190   31.4620    C  136  MOF        -0.167000
   1161  _C3       18.5460   25.1460   20.2020    C  137  MOF        -0.167000
   1162  _C3       18.5460   25.1460   46.0350    C  138  MOF        -0.167000
   1163  _C3       18.5460   50.9780   20.2020    C  139  MOF        -0.167000
   1164  _C3       18.5460   50.9780   46.0350    C  140  MOF        -0.167000
   1165  _C3       44.3780   25.1460   20.2020    C  141  MOF        -0.167000
   1166  _C3       44.3780   25.1460   46.0350    C  142  MOF        -0.167000
   1167  _C3       44.3780   50.9780   20.2020    C  143  MOF        -0.167000
   1168  _C3       44.3780   50.9780   46.0350    C  144  MOF        -0.167000
   1169  _C3       18.5460    0.6870   20.2020    C  145  MOF        -0.167000
   1170  _C3       18.5460    0.6870   46.0350    C  146  MOF        -0.167000
   1171  _C3       18.5460   26.5190   20.2020    C  147  MOF        -0.167000
   1172  _C3       18.5460   26.5190   46.0350    C  148  MOF        -0.167000
   1173  _C3       44.3780    0.6870   20.2020    C  149  MOF        -0.167000
   1174  _C3       44.3780    0.6870   46.0350    C  150  MOF        -0.167000
   1175  _C3       44.3780   26.5190   20.2020    C  151  MOF        -0.167000
   1176  _C3       44.3780   26.5190   46.0350    C  152  MOF        -0.167000
   1177  _C3        7.2860   25.1460    5.6300    C  153  MOF        -0.167000
   1178  _C3        7.2860   25.1460   31.4620    C  154  MOF        -0.167000
   1179  _C3        7.2860   50.9780    5.6300    C  155  MOF        -0.167000
   1180  _C3        7.2860   50.9780   31.4620    C  156  MOF        -0.167000
   1181  _C3       33.1190   25.1460    5.6300    C  157  MOF        -0.167000
   1182  _C3       33.1190   25.1460   31.4620    C  158  MOF        -0.167000
   1183  _C3       33.1190   50.9780    5.6300    C  159  MOF        -0.167000
   1184  _C3       33.1190   50.9780   31.4620    C  160  MOF        -0.167000
   1185  _C3        7.2860   25.1460   20.2020    C  161  MOF        -0.167000
   1186  _C3        7.2860   25.1460   46.0350    C  162  MOF        -0.167000
   1187  _C3        7.2860   50.9780   20.2020    C  163  MOF        -0.167000
   1188  _C3        7.2860   50.9780   46.0350    C  164  MOF        -0.167000
   1189  _C3       33.1190   25.1460   20.2020    C  165  MOF        -0.167000
   1190  _C3       33.1190   25.1460   46.0350    C  166  MOF        -0.167000
   1191  _C3       33.1190   50.9780   20.2020    C  167  MOF        -0.167000
   1192  _C3       33.1190   50.9780   46.0350    C  168  MOF        -0.167000
   1193  _C3       18.5460    0.6870    5.6300    C  169  MOF        -0.167000
   1194  _C3       18.5460    0.6870   31.4620    C  170  MOF        -0.167000
   1195  _C3       18.5460   26.5190    5.6300    C  171  MOF        -0.167000
   1196  _C3       18.5460   26.5190   31.4620    C  172  MOF        -0.167000
   1197  _C3       44.3780    0.6870    5.6300    C  173  MOF        -0.167000
   1198  _C3       44.3780    0.6870   31.4620    C  174  MOF        -0.167000
   1199  _C3       44.3780   26.5190    5.6300    C  175  MOF        -0.167000
   1200  _C3       44.3780   26.5190   31.4620    C  176  MOF        -0.167000
   1201  _C3       18.5460   25.1460    5.6300    C  177  MOF        -0.167000
   1202  _C3       18.5460   25.1460   31.4620    C  178  MOF        -0.167000
   1203  _C3       18.5460   50.9780    5.6300    C  179  MOF        -0.167000
   1204  _C3       18.5460   50.9780   31.4620    C  180  MOF        -0.167000
   1205  _C3       44.3780   25.1460    5.6300    C  181  MOF        -0.167000
   1206  _C3       44.3780   25.1460   31.4620    C  182  MOF        -0.167000
   1207  _C3       44.3780   50.9780    5.6300    C  183  MOF        -0.167000
   1208  _C3       44.3780   50.9780   31.4620    C  184  MOF        -0.167000
   1209  _C3        7.2860    0.6870   20.2020    C  185  MOF        -0.167000
   1210  _C3        7.2860    0.6870   46.0350    C  186  MOF        -0.167000
   1211  _C3        7.2860   26.5190   20.2020    C  187  MOF        -0.167000
   1212  _C3        7.2860   26.5190   46.0350    C  188  MOF        -0.167000
   1213  _C3       33.1190    0.6870   20.2020    C  189  MOF        -0.167000
   1214  _C3       33.1190    0.6870   46.0350    C  190  MOF        -0.167000
   1215  _C3       33.1190   26.5190   20.2020    C  191  MOF        -0.167000
   1216  _C3       33.1190   26.5190   46.0350    C  192  MOF        -0.167000
   1217  _C3        7.2860    5.6300   25.1460    C  193  MOF        -0.167000
   1218  _C3        7.2860    5.6300   50.9780    C  194  MOF        -0.167000
   1219  _C3        7.2860   31.4620   25.1460    C  195  MOF        -0.167000
   1220  _C3        7.2860   31.4620   50.9780    C  196  MOF        -0.167000
   1221  _C3       33.1190    5.6300   25.1460    C  197  MOF        -0.167000
   1222  _C3       33.1190    5.6300   50.9780    C  198  MOF        -0.167000
   1223  _C3       33.1190   31.4620   25.1460    C  199  MOF        -0.167000
   1224  _C3       33.1190   31.4620   50.9780    C  200  MOF        -0.167000
   1225  _C3       18.5460   20.2020    0.6870    C  201  MOF        -0.167000
   1226  _C3       18.5460   20.2020   26.5190    C  202  MOF        -0.167000
   1227  _C3       18.5460   46.0350    0.6870    C  203  MOF        -0.167000
   1228  _C3       18.5460   46.0350   26.5190    C  204  MOF        -0.167000
   1229  _C3       44.3780   20.2020    0.6870    C  205  MOF        -0.167000
   1230  _C3       44.3780   20.2020   26.5190    C  206  MOF        -0.167000
   1231  _C3       44.3780   46.0350    0.6870    C  207  MOF        -0.167000
   1232  _C3       44.3780   46.0350   26.5190    C  208  MOF        -0.167000
   1233  _C3       18.5460   20.2020   25.1460    C  209  MOF        -0.167000
   1234  _C3       18.5460   20.2020   50.9780    C  210  MOF        -0.167000
   1235  _C3       18.5460   46.0350   25.1460    C  211  MOF        -0.167000
   1236  _C3       18.5460   46.0350   50.9780    C  212  MOF        -0.167000
   1237  _C3       44.3780   20.2020   25.1460    C  213  MOF        -0.167000
   1238  _C3       44.3780   20.2020   50.9780    C  214  MOF        -0.167000
   1239  _C3       44.3780   46.0350   25.1460    C  215  MOF        -0.167000
   1240  _C3       44.3780   46.0350   50.9780    C  216  MOF        -0.167000
   1241  _C3        7.2860    5.6300    0.6870    C  217  MOF        -0.167000
   1242  _C3        7.2860    5.6300   26.5190    C  218  MOF        -0.167000
   1243  _C3        7.2860   31.4620    0.6870    C  219  MOF        -0.167000
   1244  _C3        7.2860   31.4620   26.5190    C  220  MOF        -0.167000
   1245  _C3       33.1190    5.6300    0.6870    C  221  MOF        -0.167000
   1246  _C3       33.1190    5.6300   26.5190    C  222  MOF        -0.167000
   1247  _C3       33.1190   31.4620    0.6870    C  223  MOF        -0.167000
   1248  _C3       33.1190   31.4620   26.5190    C  224  MOF        -0.167000
   1249  _C3        7.2860   20.2020    0.6870    C  225  MOF        -0.167000
   1250  _C3        7.2860   20.2020   26.5190    C  226  MOF        -0.167000
   1251  _C3        7.2860   46.0350    0.6870    C  227  MOF        -0.167000
   1252  _C3        7.2860   46.0350   26.5190    C  228  MOF        -0.167000
   1253  _C3       33.1190   20.2020    0.6870    C  229  MOF        -0.167000
   1254  _C3       33.1190   20.2020   26.5190    C  230  MOF        -0.167000
   1255  _C3       33.1190   46.0350    0.6870    C  231  MOF        -0.167000
   1256  _C3       33.1190   46.0350   26.5190    C  232  MOF        -0.167000
   1257  _C3       18.5460    5.6300   25.1460    C  233  MOF        -0.167000
   1258  _C3       18.5460    5.6300   50.9780    C  234  MOF        -0.167000
   1259  _C3       18.5460   31.4620   25.1460    C  235  MOF        -0.167000
   1260  _C3       18.5460   31.4620   50.9780    C  236  MOF        -0.167000
   1261  _C3       44.3780    5.6300   25.1460    C  237  MOF        -0.167000
   1262  _C3       44.3780    5.6300   50.9780    C  238  MOF        -0.167000
   1263  _C3       44.3780   31.4620   25.1460    C  239  MOF        -0.167000
   1264  _C3       44.3780   31.4620   50.9780    C  240  MOF        -0.167000
   1265  _C3       18.5460    5.6300    0.6870    C  241  MOF        -0.167000
   1266  _C3       18.5460    5.6300   26.5190    C  242  MOF        -0.167000
   1267  _C3       18.5460   31.4620    0.6870    C  243  MOF        -0.167000
   1268  _C3       18.5460   31.4620   26.5190    C  244  MOF        -0.167000
   1269  _C3       44.3780    5.6300    0.6870    C  245  MOF        -0.167000
   1270  _C3       44.3780    5.6300   26.5190    C  246  MOF        -0.167000
   1271  _C3       44.3780   31.4620    0.6870    C  247  MOF        -0.167000
   1272  _C3       44.3780   31.4620   26.5190    C  248  MOF        -0.167000
   1273  _C3        7.2860   20.2020   25.1460    C  249  MOF        -0.167000
   1274  _C3        7.2860   20.2020   50.9780    C  250  MOF        -0.167000
   1275  _C3        7.2860   46.0350   25.1460    C  251  MOF        -0.167000
   1276  _C3        7.2860   46.0350   50.9780    C  252  MOF        -0.167000
   1277  _C3       33.1190   20.2020   25.1460    C  253  MOF        -0.167000
   1278  _C3       33.1190   20.2020   50.9780    C  254  MOF        -0.167000
   1279  _C3       33.1190   46.0350   25.1460    C  255  MOF        -0.167000
   1280  _C3       33.1190   46.0350   50.9780    C  256  MOF        -0.167000
   1281  _C3        5.6300    0.6870   18.5460    C  257  MOF        -0.167000
   1282  _C3        5.6300    0.6870   44.3780    C  258  MOF        -0.167000
   1283  _C3        5.6300   26.5190   18.5460    C  259  MOF        -0.167000
   1284  _C3        5.6300   26.5190   44.3780    C  260  MOF        -0.167000
   1285  _C3       31.4620    0.6870   18.5460    C  261  MOF        -0.167000
   1286  _C3       31.4620    0.6870   44.3780    C  262  MOF        -0.167000
   1287  _C3       31.4620   26.5190   18.5460    C  263  MOF        -0.167000
   1288  _C3       31.4620   26.5190   44.3780    C  264  MOF        -0.167000
   1289  _C3       20.2020   25.1460    7.2860    C  265  MOF        -0.167000
   1290  _C3       20.2020   25.1460   33.1190    C  266  MOF        -0.167000
   1291  _C3       20.2020   50.9780    7.2860    C  267  MOF        -0.167000
   1292  _C3       20.2020   50.9780   33.1190    C  268  MOF        -0.167000
   1293  _C3       46.0350   25.1460    7.2860    C  269  MOF        -0.167000
   1294  _C3       46.0350   25.1460   33.1190    C  270  MOF        -0.167000
   1295  _C3       46.0350   50.9780    7.2860    C  271  MOF        -0.167000
   1296  _C3       46.0350   50.9780   33.1190    C  272  MOF        -0.167000
   1297  _C3       20.2020    0.6870    7.2860    C  273  MOF        -0.167000
   1298  _C3       20.2020    0.6870   33.1190    C  274  MOF        -0.167000
   1299  _C3       20.2020   26.5190    7.2860    C  275  MOF        -0.167000
   1300  _C3       20.2020   26.5190   33.1190    C  276  MOF        -0.167000
   1301  _C3       46.0350    0.6870    7.2860    C  277  MOF        -0.167000
   1302  _C3       46.0350    0.6870   33.1190    C  278  MOF        -0.167000
   1303  _C3       46.0350   26.5190    7.2860    C  279  MOF        -0.167000
   1304  _C3       46.0350   26.5190   33.1190    C  280  MOF        -0.167000
   1305  _C3        5.6300   25.1460   18.5460    C  281  MOF        -0.167000
   1306  _C3        5.6300   25.1460   44.3780    C  282  MOF        -0.167000
   1307  _C3        5.6300   50.9780   18.5460    C  283  MOF        -0.167000
   1308  _C3        5.6300   50.9780   44.3780    C  284  MOF        -0.167000
   1309  _C3       31.4620   25.1460   18.5460    C  285  MOF        -0.167000
   1310  _C3       31.4620   25.1460   44.3780    C  286  MOF        -0.167000
   1311  _C3       31.4620   50.9780   18.5460    C  287  MOF        -0.167000
   1312  _C3       31.4620   50.9780   44.3780    C  288  MOF        -0.167000
   1313  _C3       20.2020   25.1460   18.5460    C  289  MOF        -0.167000
   1314  _C3       20.2020   25.1460   44.3780    C  290  MOF        -0.167000
   1315  _C3       20.2020   50.9780   18.5460    C  291  MOF        -0.167000
   1316  _C3       20.2020   50.9780   44.3780    C  292  MOF        -0.167000
   1317  _C3       46.0350   25.1460   18.5460    C  293  MOF        -0.167000
   1318  _C3       46.0350   25.1460   44.3780    C  294  MOF        -0.167000
   1319  _C3       46.0350   50.9780   18.5460    C  295  MOF        -0.167000
   1320  _C3       46.0350   50.9780   44.3780    C  296  MOF        -0.167000
   1321  _C3        5.6300    0.6870    7.2860    C  297  MOF        -0.167000
   1322  _C3        5.6300    0.6870   33.1190    C  298  MOF        -0.167000
   1323  _C3        5.6300   26.5190    7.2860    C  299  MOF        -0.167000
   1324  _C3        5.6300   26.5190   33.1190    C  300  MOF        -0.167000
   1325  _C3       31.4620    0.6870    7.2860    C  301  MOF        -0.167000
   1326  _C3       31.4620    0.6870   33.1190    C  302  MOF        -0.167000
   1327  _C3       31.4620   26.5190    7.2860    C  303  MOF        -0.167000
   1328  _C3       31.4620   26.5190   33.1190    C  304  MOF        -0.167000
   1329  _C3        5.6300   25.1460    7.2860    C  305  MOF        -0.167000
   1330  _C3        5.6300   25.1460   33.1190    C  306  MOF        -0.167000
   1331  _C3        5.6300   50.9780    7.2860    C  307  MOF        -0.167000
   1332  _C3        5.6300   50.9780   33.1190    C  308  MOF        -0.167000
   1333  _C3       31.4620   25.1460    7.2860    C  309  MOF        -0.167000
   1334  _C3       31.4620   25.1460   33.1190    C  310  MOF        -0.167000
   1335  _C3       31.4620   50.9780    7.2860    C  311  MOF        -0.167000
   1336  _C3       31.4620   50.9780   33.1190    C  312  MOF        -0.167000
   1337  _C3       20.2020    0.6870   18.5460    C  313  MOF        -0.167000
   1338  _C3       20.2020    0.6870   44.3780    C  314  MOF        -0.167000
   1339  _C3       20.2020   26.5190   18.5460    C  315  MOF        -0.167000
   1340  _C3       20.2020   26.5190   44.3780    C  316  MOF        -0.167000
   1341  _C3       46.0350    0.6870   18.5460    C  317  MOF        -0.167000
   1342  _C3       46.0350    0.6870   44.3780    C  318  MOF        -0.167000
   1343  _C3       46.0350   26.5190   18.5460    C  319  MOF        -0.167000
   1344  _C3       46.0350   26.5190   44.3780    C  320  MOF        -0.167000
   1345  _C3        0.6870    7.2860   20.2020    C  321  MOF        -0.167000
   1346  _C3        0.6870    7.2860   46.0350    C  322  MOF        -0.167000
   1347  _C3        0.6870   33.1190   20.2020    C  323  MOF        -0.167000
   1348  _C3        0.6870   33.1190   46.0350    C  324  MOF        -0.167000
   1349  _C3       26.5190    7.2860   20.2020    C  325  MOF        -0.167000
   1350  _C3       26.5190    7.2860   46.0350    C  326  MOF        -0.167000
   1351  _C3       26.5190   33.1190   20.2020    C  327  MOF        -0.167000
   1352  _C3       26.5190   33.1190   46.0350    C  328  MOF        -0.167000
   1353  _C3       25.1460   18.5460    5.6300    C  329  MOF        -0.167000
   1354  _C3       25.1460   18.5460   31.4620    C  330  MOF        -0.167000
   1355  _C3       25.1460   44.3780    5.6300    C  331  MOF        -0.167000
   1356  _C3       25.1460   44.3780   31.4620    C  332  MOF        -0.167000
   1357  _C3       50.9780   18.5460    5.6300    C  333  MOF        -0.167000
   1358  _C3       50.9780   18.5460   31.4620    C  334  MOF        -0.167000
   1359  _C3       50.9780   44.3780    5.6300    C  335  MOF        -0.167000
   1360  _C3       50.9780   44.3780   31.4620    C  336  MOF        -0.167000
   1361  _C3        0.6870   18.5460    5.6300    C  337  MOF        -0.167000
   1362  _C3        0.6870   18.5460   31.4620    C  338  MOF        -0.167000
   1363  _C3        0.6870   44.3780    5.6300    C  339  MOF        -0.167000
   1364  _C3        0.6870   44.3780   31.4620    C  340  MOF        -0.167000
   1365  _C3       26.5190   18.5460    5.6300    C  341  MOF        -0.167000
   1366  _C3       26.5190   18.5460   31.4620    C  342  MOF        -0.167000
   1367  _C3       26.5190   44.3780    5.6300    C  343  MOF        -0.167000
   1368  _C3       26.5190   44.3780   31.4620    C  344  MOF        -0.167000
   1369  _C3       25.1460    7.2860   20.2020    C  345  MOF        -0.167000
   1370  _C3       25.1460    7.2860   46.0350    C  346  MOF        -0.167000
   1371  _C3       25.1460   33.1190   20.2020    C  347  MOF        -0.167000
   1372  _C3       25.1460   33.1190   46.0350    C  348  MOF        -0.167000
   1373  _C3       50.9780    7.2860   20.2020    C  349  MOF        -0.167000
   1374  _C3       50.9780    7.2860   46.0350    C  350  MOF        -0.167000
   1375  _C3       50.9780   33.1190   20.2020    C  351  MOF        -0.167000
   1376  _C3       50.9780   33.1190   46.0350    C  352  MOF        -0.167000
   1377  _C3       25.1460    7.2860    5.6300    C  353  MOF        -0.167000
   1378  _C3       25.1460    7.2860   31.4620    C  354  MOF        -0.167000
   1379  _C3       25.1460   33.1190    5.6300    C  355  MOF        -0.167000
   1380  _C3       25.1460   33.1190   31.4620    C  356  MOF        -0.167000
   1381  _C3       50.9780    7.2860    5.6300    C  357  MOF        -0.167000
   1382  _C3       50.9780    7.2860   31.4620    C  358  MOF        -0.167000
   1383  _C3       50.9780   33.1190    5.6300    C  359  MOF        -0.167000
   1384  _C3       50.9780   33.1190   31.4620    C  360  MOF        -0.167000
   1385  _C3        0.6870   18.5460   20.2020    C  361  MOF        -0.167000
   1386  _C3        0.6870   18.5460   46.0350    C  362  MOF        -0.167000
   1387  _C3        0.6870   44.3780   20.2020    C  363  MOF        -0.167000
   1388  _C3        0.6870   44.3780   46.0350    C  364  MOF        -0.167000
   1389  _C3       26.5190   18.5460   20.2020    C  365  MOF        -0.167000
   1390  _C3       26.5190   18.5460   46.0350    C  366  MOF        -0.167000
   1391  _C3       26.5190   44.3780   20.2020    C  367  MOF        -0.167000
   1392  _C3       26.5190   44.3780   46.0350    C  368  MOF        -0.167000
   1393  _C3       25.1460   18.5460   20.2020    C  369  MOF        -0.167000
   1394  _C3       25.1460   18.5460   46.0350    C  370  MOF        -0.167000
   1395  _C3       25.1460   44.3780   20.2020    C  371  MOF        -0.167000
   1396  _C3       25.1460   44.3780   46.0350    C  372  MOF        -0.167000
   1397  _C3       50.9780   18.5460   20.2020    C  373  MOF        -0.167000
   1398  _C3       50.9780   18.5460   46.0350    C  374  MOF        -0.167000
   1399  _C3       50.9780   44.3780   20.2020    C  375  MOF        -0.167000
   1400  _C3       50.9780   44.3780   46.0350    C  376  MOF        -0.167000
   1401  _C3        0.6870    7.2860    5.6300    C  377  MOF        -0.167000
   1402  _C3        0.6870    7.2860   31.4620    C  378  MOF        -0.167000
   1403  _C3        0.6870   33.1190    5.6300    C  379  MOF        -0.167000
   1404  _C3        0.6870   33.1190   31.4620    C  380  MOF        -0.167000
   1405  _C3       26.5190    7.2860    5.6300    C  381  MOF        -0.167000
   1406  _C3       26.5190    7.2860   31.4620    C  382  MOF        -0.167000
   1407  _C3       26.5190   33.1190    5.6300    C  383  MOF        -0.167000
   1408  _C3       26.5190   33.1190   31.4620    C  384  MOF        -0.167000
   1409  _C3        5.6300   20.2020   13.6030    C  385  MOF        -0.167000
   1410  _C3        5.6300   20.2020   39.4350    C  386  MOF        -0.167000
   1411  _C3        5.6300   46.0350   13.6030    C  387  MOF        -0.167000
   1412  _C3        5.6300   46.0350   39.4350    C  388  MOF        -0.167000
   1413  _C3       31.4620   20.2020   13.6030    C  389  MOF        -0.167000
   1414  _C3       31.4620   20.2020   39.4350    C  390  MOF        -0.167000
   1415  _C3       31.4620   46.0350   13.6030    C  391  MOF        -0.167000
   1416  _C3       31.4620   46.0350   39.4350    C  392  MOF        -0.167000
   1417  _C3       20.2020    5.6300   12.2300    C  393  MOF        -0.167000
   1418  _C3       20.2020    5.6300   38.0620    C  394  MOF        -0.167000
   1419  _C3       20.2020   31.4620   12.2300    C  395  MOF        -0.167000
   1420  _C3       20.2020   31.4620   38.0620    C  396  MOF        -0.167000
   1421  _C3       46.0350    5.6300   12.2300    C  397  MOF        -0.167000
   1422  _C3       46.0350    5.6300   38.0620    C  398  MOF        -0.167000
   1423  _C3       46.0350   31.4620   12.2300    C  399  MOF        -0.167000
   1424  _C3       46.0350   31.4620   38.0620    C  400  MOF        -0.167000
   1425  _C3       20.2020    5.6300   13.6030    C  401  MOF        -0.167000
   1426  _C3       20.2020    5.6300   39.4350    C  402  MOF        -0.167000
   1427  _C3       20.2020   31.4620   13.6030    C  403  MOF        -0.167000
   1428  _C3       20.2020   31.4620   39.4350    C  404  MOF        -0.167000
   1429  _C3       46.0350    5.6300   13.6030    C  405  MOF        -0.167000
   1430  _C3       46.0350    5.6300   39.4350    C  406  MOF        -0.167000
   1431  _C3       46.0350   31.4620   13.6030    C  407  MOF        -0.167000
   1432  _C3       46.0350   31.4620   39.4350    C  408  MOF        -0.167000
   1433  _C3        5.6300   20.2020   12.2300    C  409  MOF        -0.167000
   1434  _C3        5.6300   20.2020   38.0620    C  410  MOF        -0.167000
   1435  _C3        5.6300   46.0350   12.2300    C  411  MOF        -0.167000
   1436  _C3        5.6300   46.0350   38.0620    C  412  MOF        -0.167000
   1437  _C3       31.4620   20.2020   12.2300    C  413  MOF        -0.167000
   1438  _C3       31.4620   20.2020   38.0620    C  414  MOF        -0.167000
   1439  _C3       31.4620   46.0350   12.2300    C  415  MOF        -0.167000
   1440  _C3       31.4620   46.0350   38.0620    C  416  MOF        -0.167000
   1441  _C3       20.2020   20.2020   12.2300    C  417  MOF        -0.167000
   1442  _C3       20.2020   20.2020   38.0620    C  418  MOF        -0.167000
   1443  _C3       20.2020   46.0350   12.2300    C  419  MOF        -0.167000
   1444  _C3       20.2020   46.0350   38.0620    C  420  MOF        -0.167000
   1445  _C3       46.0350   20.2020   12.2300    C  421  MOF        -0.167000
   1446  _C3       46.0350   20.2020   38.0620    C  422  MOF        -0.167000
   1447  _C3       46.0350   46.0350   12.2300    C  423  MOF        -0.167000
   1448  _C3       46.0350   46.0350   38.0620    C  424  MOF        -0.167000
   1449  _C3        5.6300    5.6300   13.6030    C  425  MOF        -0.167000
   1450  _C3        5.6300    5.6300   39.4350    C  426  MOF        -0.167000
   1451  _C3        5.6300   31.4620   13.6030    C  427  MOF        -0.167000
   1452  _C3        5.6300   31.4620   39.4350    C  428  MOF        -0.167000
   1453  _C3       31.4620    5.6300   13.6030    C  429  MOF        -0.167000
   1454  _C3       31.4620    5.6300   39.4350    C  430  MOF        -0.167000
   1455  _C3       31.4620   31.4620   13.6030    C  431  MOF        -0.167000
   1456  _C3       31.4620   31.4620   39.4350    C  432  MOF        -0.167000
   1457  _C3        5.6300    5.6300   12.2300    C  433  MOF        -0.167000
   1458  _C3        5.6300    5.6300   38.0620    C  434  MOF        -0.167000
   1459  _C3        5.6300   31.4620   12.2300    C  435  MOF        -0.167000
   1460  _C3        5.6300   31.4620   38.0620    C  436  MOF        -0.167000
   1461  _C3       31.4620    5.6300   12.2300    C  437  MOF        -0.167000
   1462  _C3       31.4620    5.6300   38.0620    C  438  MOF        -0.167000
   1463  _C3       31.4620   31.4620   12.2300    C  439  MOF        -0.167000
   1464  _C3       31.4620   31.4620   38.0620    C  440  MOF        -0.167000
   1465  _C3       20.2020   20.2020   13.6030    C  441  MOF        -0.167000
   1466  _C3       20.2020   20.2020   39.4350    C  442  MOF        -0.167000
   1467  _C3       20.2020   46.0350   13.6030    C  443  MOF        -0.167000
   1468  _C3       20.2020   46.0350   39.4350    C  444  MOF        -0.167000
   1469  _C3       46.0350   20.2020   13.6030    C  445  MOF        -0.167000
   1470  _C3       46.0350   20.2020   39.4350    C  446  MOF        -0.167000
   1471  _C3       46.0350   46.0350   13.6030    C  447  MOF        -0.167000
   1472  _C3       46.0350   46.0350   39.4350    C  448  MOF        -0.167000
   1473  _C3        7.2860   13.6030   18.5460    C  449  MOF        -0.167000
   1474  _C3        7.2860   13.6030   44.3780    C  450  MOF        -0.167000
   1475  _C3        7.2860   39.4350   18.5460    C  451  MOF        -0.167000
   1476  _C3        7.2860   39.4350   44.3780    C  452  MOF        -0.167000
   1477  _C3       33.1190   13.6030   18.5460    C  453  MOF        -0.167000
   1478  _C3       33.1190   13.6030   44.3780    C  454  MOF        -0.167000
   1479  _C3       33.1190   39.4350   18.5460    C  455  MOF        -0.167000
   1480  _C3       33.1190   39.4350   44.3780    C  456  MOF        -0.167000
   1481  _C3       18.5460   12.2300    7.2860    C  457  MOF        -0.167000
   1482  _C3       18.5460   12.2300   33.1190    C  458  MOF        -0.167000
   1483  _C3       18.5460   38.0620    7.2860    C  459  MOF        -0.167000
   1484  _C3       18.5460   38.0620   33.1190    C  460  MOF        -0.167000
   1485  _C3       44.3780   12.2300    7.2860    C  461  MOF        -0.167000
   1486  _C3       44.3780   12.2300   33.1190    C  462  MOF        -0.167000
   1487  _C3       44.3780   38.0620    7.2860    C  463  MOF        -0.167000
   1488  _C3       44.3780   38.0620   33.1190    C  464  MOF        -0.167000
   1489  _C3       18.5460   13.6030    7.2860    C  465  MOF        -0.167000
   1490  _C3       18.5460   13.6030   33.1190    C  466  MOF        -0.167000
   1491  _C3       18.5460   39.4350    7.2860    C  467  MOF        -0.167000
   1492  _C3       18.5460   39.4350   33.1190    C  468  MOF        -0.167000
   1493  _C3       44.3780   13.6030    7.2860    C  469  MOF        -0.167000
   1494  _C3       44.3780   13.6030   33.1190    C  470  MOF        -0.167000
   1495  _C3       44.3780   39.4350    7.2860    C  471  MOF        -0.167000
   1496  _C3       44.3780   39.4350   33.1190    C  472  MOF        -0.167000
   1497  _C3        7.2860   12.2300   18.5460    C  473  MOF        -0.167000
   1498  _C3        7.2860   12.2300   44.3780    C  474  MOF        -0.167000
   1499  _C3        7.2860   38.0620   18.5460    C  475  MOF        -0.167000
   1500  _C3        7.2860   38.0620   44.3780    C  476  MOF        -0.167000
   1501  _C3       33.1190   12.2300   18.5460    C  477  MOF        -0.167000
   1502  _C3       33.1190   12.2300   44.3780    C  478  MOF        -0.167000
   1503  _C3       33.1190   38.0620   18.5460    C  479  MOF        -0.167000
   1504  _C3       33.1190   38.0620   44.3780    C  480  MOF        -0.167000
   1505  _C3        7.2860   12.2300    7.2860    C  481  MOF        -0.167000
   1506  _C3        7.2860   12.2300   33.1190    C  482  MOF        -0.167000
   1507  _C3        7.2860   38.0620    7.2860    C  483  MOF        -0.167000
   1508  _C3        7.2860   38.0620   33.1190    C  484  MOF        -0.167000
   1509  _C3       33.1190   12.2300    7.2860    C  485  MOF        -0.167000
   1510  _C3       33.1190   12.2300   33.1190    C  486  MOF        -0.167000
   1511  _C3       33.1190   38.0620    7.2860    C  487  MOF        -0.167000
   1512  _C3       33.1190   38.0620   33.1190    C  488  MOF        -0.167000
   1513  _C3       18.5460   13.6030   18.5460    C  489  MOF        -0.167000
   1514  _C3       18.5460   13.6030   44.3780    C  490  MOF        -0.167000
   1515  _C3       18.5460   39.4350   18.5460    C  491  MOF        -0.167000
   1516  _C3       18.5460   39.4350   44.3780    C  492  MOF        -0.167000
   1517  _C3       44.3780   13.6030   18.5460    C  493  MOF        -0.167000
   1518  _C3       44.3780   13.6030   44.3780    C  494  MOF        -0.167000
   1519  _C3       44.3780   39.4350   18.5460    C  495  MOF        -0.167000
   1520  _C3       44.3780   39.4350   44.3780    C  496  MOF        -0.167000
   1521  _C3       18.5460   12.2300   18.5460    C  497  MOF        -0.167000
   1522  _C3       18.5460   12.2300   44.3780    C  498  MOF        -0.167000
   1523  _C3       18.5460   38.0620   18.5460    C  499  MOF        -0.167000
   1524  _C3       18.5460   38.0620   44.3780    C  500  MOF        -0.167000
   1525  _C3       44.3780   12.2300   18.5460    C  501  MOF        -0.167000
   1526  _C3       44.3780   12.2300   44.3780    C  502  MOF        -0.167000
   1527  _C3       44.3780   38.0620   18.5460    C  503  MOF        -0.167000
   1528  _C3       44.3780   38.0620   44.3780    C  504  MOF        -0.167000
   1529  _C3        7.2860   13.6030    7.2860    C  505  MOF        -0.167000
   1530  _C3        7.2860   13.6030   33.1190    C  506  MOF        -0.167000
   1531  _C3        7.2860   39.4350    7.2860    C  507  MOF        -0.167000
   1532  _C3        7.2860   39.4350   33.1190    C  508  MOF        -0.167000
   1533  _C3       33.1190   13.6030    7.2860    C  509  MOF        -0.167000
   1534  _C3       33.1190   13.6030   33.1190    C  510  MOF        -0.167000
   1535  _C3       33.1190   39.4350    7.2860    C  511  MOF        -0.167000
   1536  _C3       33.1190   39.4350   33.1190    C  512  MOF        -0.167000
   1537  _C3        7.2860   18.5460   12.2300    C  513  MOF        -0.167000
   1538  _C3        7.2860   18.5460   38.0620    C  514  MOF        -0.167000
   1539  _C3        7.2860   44.3780   12.2300    C  515  MOF        -0.167000
   1540  _C3        7.2860   44.3780   38.0620    C  516  MOF        -0.167000
   1541  _C3       33.1190   18.5460   12.2300    C  517  MOF        -0.167000
   1542  _C3       33.1190   18.5460   38.0620    C  518  MOF        -0.167000
   1543  _C3       33.1190   44.3780   12.2300    C  519  MOF        -0.167000
   1544  _C3       33.1190   44.3780   38.0620    C  520  MOF        -0.167000
   1545  _C3       18.5460    7.2860   13.6030    C  521  MOF        -0.167000
   1546  _C3       18.5460    7.2860   39.4350    C  522  MOF        -0.167000
   1547  _C3       18.5460   33.1190   13.6030    C  523  MOF        -0.167000
   1548  _C3       18.5460   33.1190   39.4350    C  524  MOF        -0.167000
   1549  _C3       44.3780    7.2860   13.6030    C  525  MOF        -0.167000
   1550  _C3       44.3780    7.2860   39.4350    C  526  MOF        -0.167000
   1551  _C3       44.3780   33.1190   13.6030    C  527  MOF        -0.167000
   1552  _C3       44.3780   33.1190   39.4350    C  528  MOF        -0.167000
   1553  _C3       18.5460    7.2860   12.2300    C  529  MOF        -0.167000
   1554  _C3       18.5460    7.2860   38.0620    C  530  MOF        -0.167000
   1555  _C3       18.5460   33.1190   12.2300    C  531  MOF        -0.167000
   1556  _C3       18.5460   33.1190   38.0620    C  532  MOF        -0.167000
   1557  _C3       44.3780    7.2860   12.2300    C  533  MOF        -0.167000
   1558  _C3       44.3780    7.2860   38.0620    C  534  MOF        -0.167000
   1559  _C3       44.3780   33.1190   12.2300    C  535  MOF        -0.167000
   1560  _C3       44.3780   33.1190   38.0620    C  536  MOF        -0.167000
   1561  _C3        7.2860   18.5460   13.6030    C  537  MOF        -0.167000
   1562  _C3        7.2860   18.5460   39.4350    C  538  MOF        -0.167000
   1563  _C3        7.2860   44.3780   13.6030    C  539  MOF        -0.167000
   1564  _C3        7.2860   44.3780   39.4350    C  540  MOF        -0.167000
   1565  _C3       33.1190   18.5460   13.6030    C  541  MOF        -0.167000
   1566  _C3       33.1190   18.5460   39.4350    C  542  MOF        -0.167000
   1567  _C3       33.1190   44.3780   13.6030    C  543  MOF        -0.167000
   1568  _C3       33.1190   44.3780   39.4350    C  544  MOF        -0.167000
   1569  _C3        7.2860    7.2860   13.6030    C  545  MOF        -0.167000
   1570  _C3        7.2860    7.2860   39.4350    C  546  MOF        -0.167000
   1571  _C3        7.2860   33.1190   13.6030    C  547  MOF        -0.167000
   1572  _C3        7.2860   33.1190   39.4350    C  548  MOF        -0.167000
   1573  _C3       33.1190    7.2860   13.6030    C  549  MOF        -0.167000
   1574  _C3       33.1190    7.2860   39.4350    C  550  MOF        -0.167000
   1575  _C3       33.1190   33.1190   13.6030    C  551  MOF        -0.167000
   1576  _C3       33.1190   33.1190   39.4350    C  552  MOF        -0.167000
   1577  _C3       18.5460   18.5460   12.2300    C  553  MOF        -0.167000
   1578  _C3       18.5460   18.5460   38.0620    C  554  MOF        -0.167000
   1579  _C3       18.5460   44.3780   12.2300    C  555  MOF        -0.167000
   1580  _C3       18.5460   44.3780   38.0620    C  556  MOF        -0.167000
   1581  _C3       44.3780   18.5460   12.2300    C  557  MOF        -0.167000
   1582  _C3       44.3780   18.5460   38.0620    C  558  MOF        -0.167000
   1583  _C3       44.3780   44.3780   12.2300    C  559  MOF        -0.167000
   1584  _C3       44.3780   44.3780   38.0620    C  560  MOF        -0.167000
   1585  _C3       18.5460   18.5460   13.6030    C  561  MOF        -0.167000
   1586  _C3       18.5460   18.5460   39.4350    C  562  MOF        -0.167000
   1587  _C3       18.5460   44.3780   13.6030    C  563  MOF        -0.167000
   1588  _C3       18.5460   44.3780   39.4350    C  564  MOF        -0.167000
   1589  _C3       44.3780   18.5460   13.6030    C  565  MOF        -0.167000
   1590  _C3       44.3780   18.5460   39.4350    C  566  MOF        -0.167000
   1591  _C3       44.3780   44.3780   13.6030    C  567  MOF        -0.167000
   1592  _C3       44.3780   44.3780   39.4350    C  568  MOF        -0.167000
   1593  _C3        7.2860    7.2860   12.2300    C  569  MOF        -0.167000
   1594  _C3        7.2860    7.2860   38.0620    C  570  MOF        -0.167000
   1595  _C3        7.2860   33.1190   12.2300    C  571  MOF        -0.167000
   1596  _C3        7.2860   33.1190   38.0620    C  572  MOF        -0.167000
   1597  _C3       33.1190    7.2860   12.2300    C  573  MOF        -0.167000
   1598  _C3       33.1190    7.2860   38.0620    C  574  MOF        -0.167000
   1599  _C3       33.1190   33.1190   12.2300    C  575  MOF        -0.167000
   1600  _C3       33.1190   33.1190   38.0620    C  576  MOF        -0.167000
   1601  _C3        5.6300   13.6030    5.6300    C  577  MOF        -0.167000
   1602  _C3        5.6300   13.6030   31.4620    C  578  MOF        -0.167000
   1603  _C3        5.6300   39.4350    5.6300    C  579  MOF        -0.167000
   1604  _C3        5.6300   39.4350   31.4620    C  580  MOF        -0.167000
   1605  _C3       31.4620   13.6030    5.6300    C  581  MOF        -0.167000
   1606  _C3       31.4620   13.6030   31.4620    C  582  MOF        -0.167000
   1607  _C3       31.4620   39.4350    5.6300    C  583  MOF        -0.167000
   1608  _C3       31.4620   39.4350   31.4620    C  584  MOF        -0.167000
   1609  _C3       20.2020   12.2300   20.2020    C  585  MOF        -0.167000
   1610  _C3       20.2020   12.2300   46.0350    C  586  MOF        -0.167000
   1611  _C3       20.2020   38.0620   20.2020    C  587  MOF        -0.167000
   1612  _C3       20.2020   38.0620   46.0350    C  588  MOF        -0.167000
   1613  _C3       46.0350   12.2300   20.2020    C  589  MOF        -0.167000
   1614  _C3       46.0350   12.2300   46.0350    C  590  MOF        -0.167000
   1615  _C3       46.0350   38.0620   20.2020    C  591  MOF        -0.167000
   1616  _C3       46.0350   38.0620   46.0350    C  592  MOF        -0.167000
   1617  _C3       20.2020   13.6030   20.2020    C  593  MOF        -0.167000
   1618  _C3       20.2020   13.6030   46.0350    C  594  MOF        -0.167000
   1619  _C3       20.2020   39.4350   20.2020    C  595  MOF        -0.167000
   1620  _C3       20.2020   39.4350   46.0350    C  596  MOF        -0.167000
   1621  _C3       46.0350   13.6030   20.2020    C  597  MOF        -0.167000
   1622  _C3       46.0350   13.6030   46.0350    C  598  MOF        -0.167000
   1623  _C3       46.0350   39.4350   20.2020    C  599  MOF        -0.167000
   1624  _C3       46.0350   39.4350   46.0350    C  600  MOF        -0.167000
   1625  _C3        5.6300   12.2300    5.6300    C  601  MOF        -0.167000
   1626  _C3        5.6300   12.2300   31.4620    C  602  MOF        -0.167000
   1627  _C3        5.6300   38.0620    5.6300    C  603  MOF        -0.167000
   1628  _C3        5.6300   38.0620   31.4620    C  604  MOF        -0.167000
   1629  _C3       31.4620   12.2300    5.6300    C  605  MOF        -0.167000
   1630  _C3       31.4620   12.2300   31.4620    C  606  MOF        -0.167000
   1631  _C3       31.4620   38.0620    5.6300    C  607  MOF        -0.167000
   1632  _C3       31.4620   38.0620   31.4620    C  608  MOF        -0.167000
   1633  _C3       20.2020   12.2300    5.6300    C  609  MOF        -0.167000
   1634  _C3       20.2020   12.2300   31.4620    C  610  MOF        -0.167000
   1635  _C3       20.2020   38.0620    5.6300    C  611  MOF        -0.167000
   1636  _C3       20.2020   38.0620   31.4620    C  612  MOF        -0.167000
   1637  _C3       46.0350   12.2300    5.6300    C  613  MOF        -0.167000
   1638  _C3       46.0350   12.2300   31.4620    C  614  MOF        -0.167000
   1639  _C3       46.0350   38.0620    5.6300    C  615  MOF        -0.167000
   1640  _C3       46.0350   38.0620   31.4620    C  616  MOF        -0.167000
   1641  _C3        5.6300   13.6030   20.2020    C  617  MOF        -0.167000
   1642  _C3        5.6300   13.6030   46.0350    C  618  MOF        -0.167000
   1643  _C3        5.6300   39.4350   20.2020    C  619  MOF        -0.167000
   1644  _C3        5.6300   39.4350   46.0350    C  620  MOF        -0.167000
   1645  _C3       31.4620   13.6030   20.2020    C  621  MOF        -0.167000
   1646  _C3       31.4620   13.6030   46.0350    C  622  MOF        -0.167000
   1647  _C3       31.4620   39.4350   20.2020    C  623  MOF        -0.167000
   1648  _C3       31.4620   39.4350   46.0350    C  624  MOF        -0.167000
   1649  _C3        5.6300   12.2300   20.2020    C  625  MOF        -0.167000
   1650  _C3        5.6300   12.2300   46.0350    C  626  MOF        -0.167000
   1651  _C3        5.6300   38.0620   20.2020    C  627  MOF        -0.167000
   1652  _C3        5.6300   38.0620   46.0350    C  628  MOF        -0.167000
   1653  _C3       31.4620   12.2300   20.2020    C  629  MOF        -0.167000
   1654  _C3       31.4620   12.2300   46.0350    C  630  MOF        -0.167000
   1655  _C3       31.4620   38.0620   20.2020    C  631  MOF        -0.167000
   1656  _C3       31.4620   38.0620   46.0350    C  632  MOF        -0.167000
   1657  _C3       20.2020   13.6030    5.6300    C  633  MOF        -0.167000
   1658  _C3       20.2020   13.6030   31.4620    C  634  MOF        -0.167000
   1659  _C3       20.2020   39.4350    5.6300    C  635  MOF        -0.167000
   1660  _C3       20.2020   39.4350   31.4620    C  636  MOF        -0.167000
   1661  _C3       46.0350   13.6030    5.6300    C  637  MOF        -0.167000
   1662  _C3       46.0350   13.6030   31.4620    C  638  MOF        -0.167000
   1663  _C3       46.0350   39.4350    5.6300    C  639  MOF        -0.167000
   1664  _C3       46.0350   39.4350   31.4620    C  640  MOF        -0.167000
   1665  _C3       13.6030    5.6300   20.2020    C  641  MOF        -0.167000
   1666  _C3       13.6030    5.6300   46.0350    C  642  MOF        -0.167000
   1667  _C3       13.6030   31.4620   20.2020    C  643  MOF        -0.167000
   1668  _C3       13.6030   31.4620   46.0350    C  644  MOF        -0.167000
   1669  _C3       39.4350    5.6300   20.2020    C  645  MOF        -0.167000
   1670  _C3       39.4350    5.6300   46.0350    C  646  MOF        -0.167000
   1671  _C3       39.4350   31.4620   20.2020    C  647  MOF        -0.167000
   1672  _C3       39.4350   31.4620   46.0350    C  648  MOF        -0.167000
   1673  _C3       12.2300   20.2020    5.6300    C  649  MOF        -0.167000
   1674  _C3       12.2300   20.2020   31.4620    C  650  MOF        -0.167000
   1675  _C3       12.2300   46.0350    5.6300    C  651  MOF        -0.167000
   1676  _C3       12.2300   46.0350   31.4620    C  652  MOF        -0.167000
   1677  _C3       38.0620   20.2020    5.6300    C  653  MOF        -0.167000
   1678  _C3       38.0620   20.2020   31.4620    C  654  MOF        -0.167000
   1679  _C3       38.0620   46.0350    5.6300    C  655  MOF        -0.167000
   1680  _C3       38.0620   46.0350   31.4620    C  656  MOF        -0.167000
   1681  _C3       13.6030   20.2020    5.6300    C  657  MOF        -0.167000
   1682  _C3       13.6030   20.2020   31.4620    C  658  MOF        -0.167000
   1683  _C3       13.6030   46.0350    5.6300    C  659  MOF        -0.167000
   1684  _C3       13.6030   46.0350   31.4620    C  660  MOF        -0.167000
   1685  _C3       39.4350   20.2020    5.6300    C  661  MOF        -0.167000
   1686  _C3       39.4350   20.2020   31.4620    C  662  MOF        -0.167000
   1687  _C3       39.4350   46.0350    5.6300    C  663  MOF        -0.167000
   1688  _C3       39.4350   46.0350   31.4620    C  664  MOF        -0.167000
   1689  _C3       12.2300    5.6300   20.2020    C  665  MOF        -0.167000
   1690  _C3       12.2300    5.6300   46.0350    C  666  MOF        -0.167000
   1691  _C3       12.2300   31.4620   20.2020    C  667  MOF        -0.167000
   1692  _C3       12.2300   31.4620   46.0350    C  668  MOF        -0.167000
   1693  _C3       38.0620    5.6300   20.2020    C  669  MOF        -0.167000
   1694  _C3       38.0620    5.6300   46.0350    C  670  MOF        -0.167000
   1695  _C3       38.0620   31.4620   20.2020    C  671  MOF        -0.167000
   1696  _C3       38.0620   31.4620   46.0350    C  672  MOF        -0.167000
   1697  _C3       12.2300   20.2020   20.2020    C  673  MOF        -0.167000
   1698  _C3       12.2300   20.2020   46.0350    C  674  MOF        -0.167000
   1699  _C3       12.2300   46.0350   20.2020    C  675  MOF        -0.167000
   1700  _C3       12.2300   46.0350   46.0350    C  676  MOF        -0.167000
   1701  _C3       38.0620   20.2020   20.2020    C  677  MOF        -0.167000
   1702  _C3       38.0620   20.2020   46.0350    C  678  MOF        -0.167000
   1703  _C3       38.0620   46.0350   20.2020    C  679  MOF        -0.167000
   1704  _C3       38.0620   46.0350   46.0350    C  680  MOF        -0.167000
   1705  _C3       13.6030    5.6300    5.6300    C  681  MOF        -0.167000
   1706  _C3       13.6030    5.6300   31.4620    C  682  MOF        -0.167000
   1707  _C3       13.6030   31.4620    5.6300    C  683  MOF        -0.167000
   1708  _C3       13.6030   31.4620   31.4620    C  684  MOF        -0.167000
   1709  _C3       39.4350    5.6300    5.6300    C  685  MOF        -0.167000
   1710  _C3       39.4350    5.6300   31.4620    C  686  MOF        -0.167000
   1711  _C3       39.4350   31.4620    5.6300    C  687  MOF        -0.167000
   1712  _C3       39.4350   31.4620   31.4620    C  688  MOF        -0.167000
   1713  _C3       12.2300    5.6300    5.6300    C  689  MOF        -0.167000
   1714  _C3       12.2300    5.6300   31.4620    C  690  MOF        -0.167000
   1715  _C3       12.2300   31.4620    5.6300    C  691  MOF        -0.167000
   1716  _C3       12.2300   31.4620   31.4620    C  692  MOF        -0.167000
   1717  _C3       38.0620    5.6300    5.6300    C  693  MOF        -0.167000
   1718  _C3       38.0620    5.6300   31.4620    C  694  MOF        -0.167000
   1719  _C3       38.0620   31.4620    5.6300    C  695  MOF        -0.167000
   1720  _C3       38.0620   31.4620   31.4620    C  696  MOF        -0.167000
   1721  _C3       13.6030   20.2020   20.2020    C  697  MOF        -0.167000
   1722  _C3       13.6030   20.2020   46.0350    C  698  MOF        -0.167000
   1723  _C3       13.6030   46.0350   20.2020    C  699  MOF        -0.167000
   1724  _C3       13.6030   46.0350   46.0350    C  700  MOF        -0.167000
   1725  _C3       39.4350   20.2020   20.2020    C  701  MOF        -0.167000
   1726  _C3       39.4350   20.2020   46.0350    C  702  MOF        -0.167000
   1727  _C3       39.4350   46.0350   20.2020    C  703  MOF        -0.167000
   1728  _C3       39.4350   46.0350   46.0350    C  704  MOF        -0.167000
   1729  _C3       13.6030    7.2860    7.2860    C  705  MOF        -0.167000
   1730  _C3       13.6030    7.2860   33.1190    C  706  MOF        -0.167000
   1731  _C3       13.6030   33.1190    7.2860    C  707  MOF        -0.167000
   1732  _C3       13.6030   33.1190   33.1190    C  708  MOF        -0.167000
   1733  _C3       39.4350    7.2860    7.2860    C  709  MOF        -0.167000
   1734  _C3       39.4350    7.2860   33.1190    C  710  MOF        -0.167000
   1735  _C3       39.4350   33.1190    7.2860    C  711  MOF        -0.167000
   1736  _C3       39.4350   33.1190   33.1190    C  712  MOF        -0.167000
   1737  _C3       12.2300   18.5460   18.5460    C  713  MOF        -0.167000
   1738  _C3       12.2300   18.5460   44.3780    C  714  MOF        -0.167000
   1739  _C3       12.2300   44.3780   18.5460    C  715  MOF        -0.167000
   1740  _C3       12.2300   44.3780   44.3780    C  716  MOF        -0.167000
   1741  _C3       38.0620   18.5460   18.5460    C  717  MOF        -0.167000
   1742  _C3       38.0620   18.5460   44.3780    C  718  MOF        -0.167000
   1743  _C3       38.0620   44.3780   18.5460    C  719  MOF        -0.167000
   1744  _C3       38.0620   44.3780   44.3780    C  720  MOF        -0.167000
   1745  _C3       13.6030   18.5460   18.5460    C  721  MOF        -0.167000
   1746  _C3       13.6030   18.5460   44.3780    C  722  MOF        -0.167000
   1747  _C3       13.6030   44.3780   18.5460    C  723  MOF        -0.167000
   1748  _C3       13.6030   44.3780   44.3780    C  724  MOF        -0.167000
   1749  _C3       39.4350   18.5460   18.5460    C  725  MOF        -0.167000
   1750  _C3       39.4350   18.5460   44.3780    C  726  MOF        -0.167000
   1751  _C3       39.4350   44.3780   18.5460    C  727  MOF        -0.167000
   1752  _C3       39.4350   44.3780   44.3780    C  728  MOF        -0.167000
   1753  _C3       12.2300    7.2860    7.2860    C  729  MOF        -0.167000
   1754  _C3       12.2300    7.2860   33.1190    C  730  MOF        -0.167000
   1755  _C3       12.2300   33.1190    7.2860    C  731  MOF        -0.167000
   1756  _C3       12.2300   33.1190   33.1190    C  732  MOF        -0.167000
   1757  _C3       38.0620    7.2860    7.2860    C  733  MOF        -0.167000
   1758  _C3       38.0620    7.2860   33.1190    C  734  MOF        -0.167000
   1759  _C3       38.0620   33.1190    7.2860    C  735  MOF        -0.167000
   1760  _C3       38.0620   33.1190   33.1190    C  736  MOF        -0.167000
   1761  _C3       12.2300    7.2860   18.5460    C  737  MOF        -0.167000
   1762  _C3       12.2300    7.2860   44.3780    C  738  MOF        -0.167000
   1763  _C3       12.2300   33.1190   18.5460    C  739  MOF        -0.167000
   1764  _C3       12.2300   33.1190   44.3780    C  740  MOF        -0.167000
   1765  _C3       38.0620    7.2860   18.5460    C  741  MOF        -0.167000
   1766  _C3       38.0620    7.2860   44.3780    C  742  MOF        -0.167000
   1767  _C3       38.0620   33.1190   18.5460    C  743  MOF        -0.167000
   1768  _C3       38.0620   33.1190   44.3780    C  744  MOF        -0.167000
   1769  _C3       13.6030   18.5460    7.2860    C  745  MOF        -0.167000
   1770  _C3       13.6030   18.5460   33.1190    C  746  MOF        -0.167000
   1771  _C3       13.6030   44.3780    7.2860    C  747  MOF        -0.167000
   1772  _C3       13.6030   44.3780   33.1190    C  748  MOF        -0.167000
   1773  _C3       39.4350   18.5460    7.2860    C  749  MOF        -0.167000
   1774  _C3       39.4350   18.5460   33.1190    C  750  MOF        -0.167000
   1775  _C3       39.4350   44.3780    7.2860    C  751  MOF        -0.167000
   1776  _C3       39.4350   44.3780   33.1190    C  752  MOF        -0.167000
   1777  _C3       12.2300   18.5460    7.2860    C  753  MOF        -0.167000
   1778  _C3       12.2300   18.5460   33.1190    C  754  MOF        -0.167000
   1779  _C3       12.2300   44.3780    7.2860    C  755  MOF        -0.167000
   1780  _C3       12.2300   44.3780   33.1190    C  756  MOF        -0.167000
   1781  _C3       38.0620   18.5460    7.2860    C  757  MOF        -0.167000
   1782  _C3       38.0620   18.5460   33.1190    C  758  MOF        -0.167000
   1783  _C3       38.0620   44.3780    7.2860    C  759  MOF        -0.167000
   1784  _C3       38.0620   44.3780   33.1190    C  760  MOF        -0.167000
   1785  _C3       13.6030    7.2860   18.5460    C  761  MOF        -0.167000
   1786  _C3       13.6030    7.2860   44.3780    C  762  MOF        -0.167000
   1787  _C3       13.6030   33.1190   18.5460    C  763  MOF        -0.167000
   1788  _C3       13.6030   33.1190   44.3780    C  764  MOF        -0.167000
   1789  _C3       39.4350    7.2860   18.5460    C  765  MOF        -0.167000
   1790  _C3       39.4350    7.2860   44.3780    C  766  MOF        -0.167000
   1791  _C3       39.4350   33.1190   18.5460    C  767  MOF        -0.167000
   1792  _C3       39.4350   33.1190   44.3780    C  768  MOF        -0.167000
   1793  _O1        6.4580    6.4580    6.4580    O    1  MOF        -1.564000
   1794  _O1        6.4580    6.4580   32.2900    O    2  MOF        -1.564000
   1795  _O1        6.4580   32.2900    6.4580    O    3  MOF        -1.564000
   1796  _O1        6.4580   32.2900   32.2900    O    4  MOF        -1.564000
   1797  _O1       32.2900    6.4580    6.4580    O    5  MOF        -1.564000
   1798  _O1       32.2900    6.4580   32.2900    O    6  MOF        -1.564000
   1799  _O1       32.2900   32.2900    6.4580    O    7  MOF        -1.564000
   1800  _O1       32.2900   32.2900   32.2900    O    8  MOF        -1.564000
   1801  _O1       19.3740   19.3740   19.3740    O    9  MOF        -1.564000
   1802  _O1       19.3740   19.3740   45.2070    O   10  MOF        -1.564000
   1803  _O1       19.3740   45.2070   19.3740    O   11  MOF        -1.564000
   1804  _O1       19.3740   45.2070   45.2070    O   12  MOF        -1.564000
   1805  _O1       45.2070   19.3740   19.3740    O   13  MOF        -1.564000
   1806  _O1       45.2070   19.3740   45.2070    O   14  MOF        -1.564000
   1807  _O1       45.2070   45.2070   19.3740    O   15  MOF        -1.564000
   1808  _O1       45.2070   45.2070   45.2070    O   16  MOF        -1.564000
   1809  _O1       19.3740   19.3740    6.4580    O   17  MOF        -1.564000
   1810  _O1       19.3740   19.3740   32.2900    O   18  MOF        -1.564000
   1811  _O1       19.3740   45.2070    6.4580    O   19  MOF        -1.564000
   1812  _O1       19.3740   45.2070   32.2900    O   20  MOF        -1.564000
   1813  _O1       45.2070   19.3740    6.4580    O   21  MOF        -1.564000
   1814  _O1       45.2070   19.3740   32.2900    O   22  MOF        -1.564000
   1815  _O1       45.2070   45.2070    6.4580    O   23  MOF        -1.564000
   1816  _O1       45.2070   45.2070   32.2900    O   24  MOF        -1.564000
   1817  _O1        6.4580    6.4580   19.3740    O   25  MOF        -1.564000
   1818  _O1        6.4580    6.4580   45.2070    O   26  MOF        -1.564000
   1819  _O1        6.4580   32.2900   19.3740    O   27  MOF        -1.564000
   1820  _O1        6.4580   32.2900   45.2070    O   28  MOF        -1.564000
   1821  _O1       32.2900    6.4580   19.3740    O   29  MOF        -1.564000
   1822  _O1       32.2900    6.4580   45.2070    O   30  MOF        -1.564000
   1823  _O1       32.2900   32.2900   19.3740    O   31  MOF        -1.564000
   1824  _O1       32.2900   32.2900   45.2070    O   32  MOF        -1.564000
   1825  _O1       19.3740    6.4580   19.3740    O   33  MOF        -1.564000
   1826  _O1       19.3740    6.4580   45.2070    O   34  MOF        -1.564000
   1827  _O1       19.3740   32.2900   19.3740    O   35  MOF        -1.564000
   1828  _O1       19.3740   32.2900   45.2070    O   36  MOF        -1.564000
   1829  _O1       45.2070    6.4580   19.3740    O   37  MOF        -1.564000
   1830  _O1       45.2070    6.4580   45.2070    O   38  MOF        -1.564000
   1831  _O1       45.2070   32.2900   19.3740    O   39  MOF        -1.564000
   1832  _O1       45.2070   32.2900   45.2070    O   40  MOF        -1.564000
   1833  _O1        6.4580   19.3740    6.4580    O   41  MOF        -1.564000
   1834  _O1        6.4580   19.3740   32.2900    O   42  MOF        -1.564000
   1835  _O1        6.4580   45.2070    6.4580    O   43  MOF        -1.564000
   1836  _O1        6.4580   45.2070   32.2900    O   44  MOF        -1.564000
   1837  _O1       32.2900   19.3740    6.4580    O   45  MOF        -1.564000
   1838  _O1       32.2900   19.3740   32.2900    O   46  MOF        -1.564000
   1839  _O1       32.2900   45.2070    6.4580    O   47  MOF        -1.564000
   1840  _O1       32.2900   45.2070   32.2900    O   48  MOF        -1.564000
   1841  _O1        6.4580   19.3740   19.3740    O   49  MOF        -1.564000
   1842  _O1        6.4580   19.3740   45.2070    O   50  MOF        -1.564000
   1843  _O1        6.4580   45.2070   19.3740    O   51  MOF        -1.564000
   1844  _O1        6.4580   45.2070   45.2070    O   52  MOF        -1.564000
   1845  _O1       32.2900   19.3740   19.3740    O   53  MOF        -1.564000
   1846  _O1       32.2900   19.3740   45.2070    O   54  MOF        -1.564000
   1847  _O1       32.2900   45.2070   19.3740    O   55  MOF        -1.564000
   1848  _O1       32.2900   45.2070   45.2070    O   56  MOF        -1.564000
   1849  _O1       19.3740    6.4580    6.4580    O   57  MOF        -1.564000
   1850  _O1       19.3740    6.4580   32.2900    O   58  MOF        -1.564000
   1851  _O1       19.3740   32.2900    6.4580    O   59  MOF        -1.564000
   1852  _O1       19.3740   32.2900   32.2900    O   60  MOF        -1.564000
   1853  _O1       45.2070    6.4580    6.4580    O   61  MOF        -1.564000
   1854  _O1       45.2070    6.4580   32.2900    O   62  MOF        -1.564000
   1855  _O1       45.2070   32.2900    6.4580    O   63  MOF        -1.564000
   1856  _O1       45.2070   32.2900   32.2900    O   64  MOF        -1.564000
   1857  _O2        5.6710    7.2450    3.4570    O    1  MOF        -0.641000
   1858  _O2        5.6710    7.2450   29.2890    O    2  MOF        -0.641000
   1859  _O2        5.6710   33.0780    3.4570    O    3  MOF        -0.641000
   1860  _O2        5.6710   33.0780   29.2890    O    4  MOF        -0.641000
   1861  _O2       31.5030    7.2450    3.4570    O    5  MOF        -0.641000
   1862  _O2       31.5030    7.2450   29.2890    O    6  MOF        -0.641000
   1863  _O2       31.5030   33.0780    3.4570    O    7  MOF        -0.641000
   1864  _O2       31.5030   33.0780   29.2890    O    8  MOF        -0.641000
   1865  _O2       20.1620   18.5870   22.3750    O    9  MOF        -0.641000
   1866  _O2       20.1620   18.5870   48.2070    O   10  MOF        -0.641000
   1867  _O2       20.1620   44.4190   22.3750    O   11  MOF        -0.641000
   1868  _O2       20.1620   44.4190   48.2070    O   12  MOF        -0.641000
   1869  _O2       45.9940   18.5870   22.3750    O   13  MOF        -0.641000
   1870  _O2       45.9940   18.5870   48.2070    O   14  MOF        -0.641000
   1871  _O2       45.9940   44.4190   22.3750    O   15  MOF        -0.641000
   1872  _O2       45.9940   44.4190   48.2070    O   16  MOF        -0.641000
   1873  _O2       20.1620   18.5870    3.4570    O   17  MOF        -0.641000
   1874  _O2       20.1620   18.5870   29.2890    O   18  MOF        -0.641000
   1875  _O2       20.1620   44.4190    3.4570    O   19  MOF        -0.641000
   1876  _O2       20.1620   44.4190   29.2890    O   20  MOF        -0.641000
   1877  _O2       45.9940   18.5870    3.4570    O   21  MOF        -0.641000
   1878  _O2       45.9940   18.5870   29.2890    O   22  MOF        -0.641000
   1879  _O2       45.9940   44.4190    3.4570    O   23  MOF        -0.641000
   1880  _O2       45.9940   44.4190   29.2890    O   24  MOF        -0.641000
   1881  _O2        5.6710    7.2450   22.3750    O   25  MOF        -0.641000
   1882  _O2        5.6710    7.2450   48.2070    O   26  MOF        -0.641000
   1883  _O2        5.6710   33.0780   22.3750    O   27  MOF        -0.641000
   1884  _O2        5.6710   33.0780   48.2070    O   28  MOF        -0.641000
   1885  _O2       31.5030    7.2450   22.3750    O   29  MOF        -0.641000
   1886  _O2       31.5030    7.2450   48.2070    O   30  MOF        -0.641000
   1887  _O2       31.5030   33.0780   22.3750    O   31  MOF        -0.641000
   1888  _O2       31.5030   33.0780   48.2070    O   32  MOF        -0.641000
   1889  _O2       20.1620    7.2450   22.3750    O   33  MOF        -0.641000
   1890  _O2       20.1620    7.2450   48.2070    O   34  MOF        -0.641000
   1891  _O2       20.1620   33.0780   22.3750    O   35  MOF        -0.641000
   1892  _O2       20.1620   33.0780   48.2070    O   36  MOF        -0.641000
   1893  _O2       45.9940    7.2450   22.3750    O   37  MOF        -0.641000
   1894  _O2       45.9940    7.2450   48.2070    O   38  MOF        -0.641000
   1895  _O2       45.9940   33.0780   22.3750    O   39  MOF        -0.641000
   1896  _O2       45.9940   33.0780   48.2070    O   40  MOF        -0.641000
   1897  _O2        5.6710   18.5870    3.4570    O   41  MOF        -0.641000
   1898  _O2        5.6710   18.5870   29.2890    O   42  MOF        -0.641000
   1899  _O2        5.6710   44.4190    3.4570    O   43  MOF        -0.641000
   1900  _O2        5.6710   44.4190   29.2890    O   44  MOF        -0.641000
   1901  _O2       31.5030   18.5870    3.4570    O   45  MOF        -0.641000
   1902  _O2       31.5030   18.5870   29.2890    O   46  MOF        -0.641000
   1903  _O2       31.5030   44.4190    3.4570    O   47  MOF        -0.641000
   1904  _O2       31.5030   44.4190   29.2890    O   48  MOF        -0.641000
   1905  _O2        5.6710   18.5870   22.3750    O   49  MOF        -0.641000
   1906  _O2        5.6710   18.5870   48.2070    O   50  MOF        -0.641000
   1907  _O2        5.6710   44.4190   22.3750    O   51  MOF        -0.641000
   1908  _O2        5.6710   44.4190   48.2070    O   52  MOF        -0.641000
   1909  _O2       31.5030   18.5870   22.3750    O   53  MOF        -0.641000
   1910  _O2       31.5030   18.5870   48.2070    O   54  MOF        -0.641000
   1911  _O2       31.5030   44.4190   22.3750    O   55  MOF        -0.641000
   1912  _O2       31.5030   44.4190   48.2070    O   56  MOF        -0.641000
   1913  _O2       20.1620    7.2450    3.4570    O   57  MOF        -0.641000
   1914  _O2       20.1620    7.2450   29.2890    O   58  MOF        -0.641000
   1915  _O2       20.1620   33.0780    3.4570    O   59  MOF        -0.641000
   1916  _O2       20.1620   33.0780   29.2890    O   60  MOF        -0.641000
   1917  _O2       45.9940    7.2450    3.4570    O   61  MOF        -0.641000
   1918  _O2       45.9940    7.2450   29.2890    O   62  MOF        -0.641000
   1919  _O2       45.9940   33.0780    3.4570    O   63  MOF        -0.641000
   1920  _O2       45.9940   33.0780   29.2890    O   64  MOF        -0.641000
   1921  _O2        3.4570    5.6710    7.2450    O   65  MOF        -0.641000
   1922  _O2        3.4570    5.6710   33.0780    O   66  MOF        -0.641000
   1923  _O2        3.4570   31.5030    7.2450    O   67  MOF        -0.641000
   1924  _O2        3.4570   31.5030   33.0780    O   68  MOF        -0.641000
   1925  _O2       29.2890    5.6710    7.2450    O   69  MOF        -0.641000
   1926  _O2       29.2890    5.6710   33.0780    O   70  MOF        -0.641000
   1927  _O2       29.2890   31.5030    7.2450    O   71  MOF        -0.641000
   1928  _O2       29.2890   31.5030   33.0780    O   72  MOF        -0.641000
   1929  _O2       22.3750   20.1620   18.5870    O   73  MOF        -0.641000
   1930  _O2       22.3750   20.1620   44.4190    O   74  MOF        -0.641000
   1931  _O2       22.3750   45.9940   18.5870    O   75  MOF        -0.641000
   1932  _O2       22.3750   45.9940   44.4190    O   76  MOF        -0.641000
   1933  _O2       48.2070   20.1620   18.5870    O   77  MOF        -0.641000
   1934  _O2       48.2070   20.1620   44.4190    O   78  MOF        -0.641000
   1935  _O2       48.2070   45.9940   18.5870    O   79  MOF        -0.641000
   1936  _O2       48.2070   45.9940   44.4190    O   80  MOF        -0.641000
   1937  _O2        3.4570   20.1620   18.5870    O   81  MOF        -0.641000
   1938  _O2        3.4570   20.1620   44.4190    O   82  MOF        -0.641000
   1939  _O2        3.4570   45.9940   18.5870    O   83  MOF        -0.641000
   1940  _O2        3.4570   45.9940   44.4190    O   84  MOF        -0.641000
   1941  _O2       29.2890   20.1620   18.5870    O   85  MOF        -0.641000
   1942  _O2       29.2890   20.1620   44.4190    O   86  MOF        -0.641000
   1943  _O2       29.2890   45.9940   18.5870    O   87  MOF        -0.641000
   1944  _O2       29.2890   45.9940   44.4190    O   88  MOF        -0.641000
   1945  _O2       22.3750    5.6710    7.2450    O   89  MOF        -0.641000
   1946  _O2       22.3750    5.6710   33.0780    O   90  MOF        -0.641000
   1947  _O2       22.3750   31.5030    7.2450    O   91  MOF        -0.641000
   1948  _O2       22.3750   31.5030   33.0780    O   92  MOF        -0.641000
   1949  _O2       48.2070    5.6710    7.2450    O   93  MOF        -0.641000
   1950  _O2       48.2070    5.6710   33.0780    O   94  MOF        -0.641000
   1951  _O2       48.2070   31.5030    7.2450    O   95  MOF        -0.641000
   1952  _O2       48.2070   31.5030   33.0780    O   96  MOF        -0.641000
   1953  _O2       22.3750   20.1620    7.2450    O   97  MOF        -0.641000
   1954  _O2       22.3750   20.1620   33.0780    O   98  MOF        -0.641000
   1955  _O2       22.3750   45.9940    7.2450    O   99  MOF        -0.641000
   1956  _O2       22.3750   45.9940   33.0780    O  100  MOF        -0.641000
   1957  _O2       48.2070   20.1620    7.2450    O  101  MOF        -0.641000
   1958  _O2       48.2070   20.1620   33.0780    O  102  MOF        -0.641000
   1959  _O2       48.2070   45.9940    7.2450    O  103  MOF        -0.641000
   1960  _O2       48.2070   45.9940   33.0780    O  104  MOF        -0.641000
   1961  _O2        3.4570    5.6710   18.5870    O  105  MOF        -0.641000
   1962  _O2        3.4570    5.6710   44.4190    O  106  MOF        -0.641000
   1963  _O2        3.4570   31.5030   18.5870    O  107  MOF        -0.641000
   1964  _O2        3.4570   31.5030   44.4190    O  108  MOF        -0.641000
   1965  _O2       29.2890    5.6710   18.5870    O  109  MOF        -0.641000
   1966  _O2       29.2890    5.6710   44.4190    O  110  MOF        -0.641000
   1967  _O2       29.2890   31.5030   18.5870    O  111  MOF        -0.641000
   1968  _O2       29.2890   31.5030   44.4190    O  112  MOF        -0.641000
   1969  _O2       22.3750    5.6710   18.5870    O  113  MOF        -0.641000
   1970  _O2       22.3750    5.6710   44.4190    O  114  MOF        -0.641000
   1971  _O2       22.3750   31.5030   18.5870    O  115  MOF        -0.641000
   1972  _O2       22.3750   31.5030   44.4190    O  116  MOF        -0.641000
   1973  _O2       48.2070    5.6710   18.5870    O  117  MOF        -0.641000
   1974  _O2       48.2070    5.6710   44.4190    O  118  MOF        -0.641000
   1975  _O2       48.2070   31.5030   18.5870    O  119  MOF        -0.641000
   1976  _O2       48.2070   31.5030   44.4190    O  120  MOF        -0.641000
   1977  _O2        3.4570   20.1620    7.2450    O  121  MOF        -0.641000
   1978  _O2        3.4570   20.1620   33.0780    O  122  MOF        -0.641000
   1979  _O2        3.4570   45.9940    7.2450    O  123  MOF        -0.641000
   1980  _O2        3.4570   45.9940   33.0780    O  124  MOF        -0.641000
   1981  _O2       29.2890   20.1620    7.2450    O  125  MOF        -0.641000
   1982  _O2       29.2890   20.1620   33.0780    O  126  MOF        -0.641000
   1983  _O2       29.2890   45.9940    7.2450    O  127  MOF        -0.641000
   1984  _O2       29.2890   45.9940   33.0780    O  128  MOF        -0.641000
   1985  _O2        7.2450    3.4570    5.6710    O  129  MOF        -0.641000
   1986  _O2        7.2450    3.4570   31.5030    O  130  MOF        -0.641000
   1987  _O2        7.2450   29.2890    5.6710    O  131  MOF        -0.641000
   1988  _O2        7.2450   29.2890   31.5030    O  132  MOF        -0.641000
   1989  _O2       33.0780    3.4570    5.6710    O  133  MOF        -0.641000
   1990  _O2       33.0780    3.4570   31.5030    O  134  MOF        -0.641000
   1991  _O2       33.0780   29.2890    5.6710    O  135  MOF        -0.641000
   1992  _O2       33.0780   29.2890   31.5030    O  136  MOF        -0.641000
   1993  _O2       18.5870   22.3750   20.1620    O  137  MOF        -0.641000
   1994  _O2       18.5870   22.3750   45.9940    O  138  MOF        -0.641000
   1995  _O2       18.5870   48.2070   20.1620    O  139  MOF        -0.641000
   1996  _O2       18.5870   48.2070   45.9940    O  140  MOF        -0.641000
   1997  _O2       44.4190   22.3750   20.1620    O  141  MOF        -0.641000
   1998  _O2       44.4190   22.3750   45.9940    O  142  MOF        -0.641000
   1999  _O2       44.4190   48.2070   20.1620    O  143  MOF        -0.641000
   2000  _O2       44.4190   48.2070   45.9940    O  144  MOF        -0.641000
   2001  _O2       18.5870    3.4570   20.1620    O  145  MOF        -0.641000
   2002  _O2       18.5870    3.4570   45.9940    O  146  MOF        -0.641000
   2003  _O2       18.5870   29.2890   20.1620    O  147  MOF        -0.641000
   2004  _O2       18.5870   29.2890   45.9940    O  148  MOF        -0.641000
   2005  _O2       44.4190    3.4570   20.1620    O  149  MOF        -0.641000
   2006  _O2       44.4190    3.4570   45.9940    O  150  MOF        -0.641000
   2007  _O2       44.4190   29.2890   20.1620    O  151  MOF        -0.641000
   2008  _O2       44.4190   29.2890   45.9940    O  152  MOF        -0.641000
   2009  _O2        7.2450   22.3750    5.6710    O  153  MOF        -0.641000
   2010  _O2        7.2450   22.3750   31.5030    O  154  MOF        -0.641000
   2011  _O2        7.2450   48.2070    5.6710    O  155  MOF        -0.641000
   2012  _O2        7.2450   48.2070   31.5030    O  156  MOF        -0.641000
   2013  _O2       33.0780   22.3750    5.6710    O  157  MOF        -0.641000
   2014  _O2       33.0780   22.3750   31.5030    O  158  MOF        -0.641000
   2015  _O2       33.0780   48.2070    5.6710    O  159  MOF        -0.641000
   2016  _O2       33.0780   48.2070   31.5030    O  160  MOF        -0.641000
   2017  _O2        7.2450   22.3750   20.1620    O  161  MOF        -0.641000
   2018  _O2        7.2450   22.3750   45.9940    O  162  MOF        -0.641000
   2019  _O2        7.2450   48.2070   20.1620    O  163  MOF        -0.641000
   2020  _O2        7.2450   48.2070   45.9940    O  164  MOF        -0.641000
   2021  _O2       33.0780   22.3750   20.1620    O  165  MOF        -0.641000
   2022  _O2       33.0780   22.3750   45.9940    O  166  MOF        -0.641000
   2023  _O2       33.0780   48.2070   20.1620    O  167  MOF        -0.641000
   2024  _O2       33.0780   48.2070   45.9940    O  168  MOF        -0.641000
   2025  _O2       18.5870    3.4570    5.6710    O  169  MOF        -0.641000
   2026  _O2       18.5870    3.4570   31.5030    O  170  MOF        -0.641000
   2027  _O2       18.5870   29.2890    5.6710    O  171  MOF        -0.641000
   2028  _O2       18.5870   29.2890   31.5030    O  172  MOF        -0.641000
   2029  _O2       44.4190    3.4570    5.6710    O  173  MOF        -0.641000
   2030  _O2       44.4190    3.4570   31.5030    O  174  MOF        -0.641000
   2031  _O2       44.4190   29.2890    5.6710    O  175  MOF        -0.641000
   2032  _O2       44.4190   29.2890   31.5030    O  176  MOF        -0.641000
   2033  _O2       18.5870   22.3750    5.6710    O  177  MOF        -0.641000
   2034  _O2       18.5870   22.3750   31.5030    O  178  MOF        -0.641000
   2035  _O2       18.5870   48.2070    5.6710    O  179  MOF        -0.641000
   2036  _O2       18.5870   48.2070   31.5030    O  180  MOF        -0.641000
   2037  _O2       44.4190   22.3750    5.6710    O  181  MOF        -0.641000
   2038  _O2       44.4190   22.3750   31.5030    O  182  MOF        -0.641000
   2039  _O2       44.4190   48.2070    5.6710    O  183  MOF        -0.641000
   2040  _O2       44.4190   48.2070   31.5030    O  184  MOF        -0.641000
   2041  _O2        7.2450    3.4570   20.1620    O  185  MOF        -0.641000
   2042  _O2        7.2450    3.4570   45.9940    O  186  MOF        -0.641000
   2043  _O2        7.2450   29.2890   20.1620    O  187  MOF        -0.641000
   2044  _O2        7.2450   29.2890   45.9940    O  188  MOF        -0.641000
   2045  _O2       33.0780    3.4570   20.1620    O  189  MOF        -0.641000
   2046  _O2       33.0780    3.4570   45.9940    O  190  MOF        -0.641000
   2047  _O2       33.0780   29.2890   20.1620    O  191  MOF        -0.641000
   2048  _O2       33.0780   29.2890   45.9940    O  192  MOF        -0.641000
   2049  _O2        7.2450    5.6710   22.3750    O  193  MOF        -0.641000
   2050  _O2        7.2450    5.6710   48.2070    O  194  MOF        -0.641000
   2051  _O2        7.2450   31.5030   22.3750    O  195  MOF        -0.641000
   2052  _O2        7.2450   31.5030   48.2070    O  196  MOF        -0.641000
   2053  _O2       33.0780    5.6710   22.3750    O  197  MOF        -0.641000
   2054  _O2       33.0780    5.6710   48.2070    O  198  MOF        -0.641000
   2055  _O2       33.0780   31.5030   22.3750    O  199  MOF        -0.641000
   2056  _O2       33.0780   31.5030   48.2070    O  200  MOF        -0.641000
   2057  _O2       18.5870   20.1620    3.4570    O  201  MOF        -0.641000
   2058  _O2       18.5870   20.1620   29.2890    O  202  MOF        -0.641000
   2059  _O2       18.5870   45.9940    3.4570    O  203  MOF        -0.641000
   2060  _O2       18.5870   45.9940   29.2890    O  204  MOF        -0.641000
   2061  _O2       44.4190   20.1620    3.4570    O  205  MOF        -0.641000
   2062  _O2       44.4190   20.1620   29.2890    O  206  MOF        -0.641000
   2063  _O2       44.4190   45.9940    3.4570    O  207  MOF        -0.641000
   2064  _O2       44.4190   45.9940   29.2890    O  208  MOF        -0.641000
   2065  _O2       18.5870   20.1620   22.3750    O  209  MOF        -0.641000
   2066  _O2       18.5870   20.1620   48.2070    O  210  MOF        -0.641000
   2067  _O2       18.5870   45.9940   22.3750    O  211  MOF        -0.641000
   2068  _O2       18.5870   45.9940   48.2070    O  212  MOF        -0.641000
   2069  _O2       44.4190   20.1620   22.3750    O  213  MOF        -0.641000
   2070  _O2       44.4190   20.1620   48.2070    O  214  MOF        -0.641000
   2071  _O2       44.4190   45.9940   22.3750    O  215  MOF        -0.641000
   2072  _O2       44.4190   45.9940   48.2070    O  216  MOF        -0.641000
   2073  _O2        7.2450    5.6710    3.4570    O  217  MOF        -0.641000
   2074  _O2        7.2450    5.6710   29.2890    O  218  MOF        -0.641000
   2075  _O2        7.2450   31.5030    3.4570    O  219  MOF        -0.641000
   2076  _O2        7.2450   31.5030   29.2890    O  220  MOF        -0.641000
   2077  _O2       33.0780    5.6710    3.4570    O  221  MOF        -0.641000
   2078  _O2       33.0780    5.6710   29.2890    O  222  MOF        -0.641000
   2079  _O2       33.0780   31.5030    3.4570    O  223  MOF        -0.641000
   2080  _O2       33.0780   31.5030   29.2890    O  224  MOF        -0.641000
   2081  _O2        7.2450   20.1620    3.4570    O  225  MOF        -0.641000
   2082  _O2        7.2450   20.1620   29.2890    O  226  MOF        -0.641000
   2083  _O2        7.2450   45.9940    3.4570    O  227  MOF        -0.641000
   2084  _O2        7.2450   45.9940   29.2890    O  228  MOF        -0.641000
   2085  _O2       33.0780   20.1620    3.4570    O  229  MOF        -0.641000
   2086  _O2       33.0780   20.1620   29.2890    O  230  MOF        -0.641000
   2087  _O2       33.0780   45.9940    3.4570    O  231  MOF        -0.641000
   2088  _O2       33.0780   45.9940   29.2890    O  232  MOF        -0.641000
   2089  _O2       18.5870    5.6710   22.3750    O  233  MOF        -0.641000
   2090  _O2       18.5870    5.6710   48.2070    O  234  MOF        -0.641000
   2091  _O2       18.5870   31.5030   22.3750    O  235  MOF        -0.641000
   2092  _O2       18.5870   31.5030   48.2070    O  236  MOF        -0.641000
   2093  _O2       44.4190    5.6710   22.3750    O  237  MOF        -0.641000
   2094  _O2       44.4190    5.6710   48.2070    O  238  MOF        -0.641000
   2095  _O2       44.4190   31.5030   22.3750    O  239  MOF        -0.641000
   2096  _O2       44.4190   31.5030   48.2070    O  240  MOF        -0.641000
   2097  _O2       18.5870    5.6710    3.4570    O  241  MOF        -0.641000
   2098  _O2       18.5870    5.6710   29.2890    O  242  MOF        -0.641000
   2099  _O2       18.5870   31.5030    3.4570    O  243  MOF        -0.641000
   2100  _O2       18.5870   31.5030   29.2890    O  244  MOF        -0.641000
   2101  _O2       44.4190    5.6710    3.4570    O  245  MOF        -0.641000
   2102  _O2       44.4190    5.6710   29.2890    O  246  MOF        -0.641000
   2103  _O2       44.4190   31.5030    3.4570    O  247  MOF        -0.641000
   2104  _O2       44.4190   31.5030   29.2890    O  248  MOF        -0.641000
   2105  _O2        7.2450   20.1620   22.3750    O  249  MOF        -0.641000
   2106  _O2        7.2450   20.1620   48.2070    O  250  MOF        -0.641000
   2107  _O2        7.2450   45.9940   22.3750    O  251  MOF        -0.641000
   2108  _O2        7.2450   45.9940   48.2070    O  252  MOF        -0.641000
   2109  _O2       33.0780   20.1620   22.3750    O  253  MOF        -0.641000
   2110  _O2       33.0780   20.1620   48.2070    O  254  MOF        -0.641000
   2111  _O2       33.0780   45.9940   22.3750    O  255  MOF        -0.641000
   2112  _O2       33.0780   45.9940   48.2070    O  256  MOF        -0.641000
   2113  _O2        5.6710    3.4570   18.5870    O  257  MOF        -0.641000
   2114  _O2        5.6710    3.4570   44.4190    O  258  MOF        -0.641000
   2115  _O2        5.6710   29.2890   18.5870    O  259  MOF        -0.641000
   2116  _O2        5.6710   29.2890   44.4190    O  260  MOF        -0.641000
   2117  _O2       31.5030    3.4570   18.5870    O  261  MOF        -0.641000
   2118  _O2       31.5030    3.4570   44.4190    O  262  MOF        -0.641000
   2119  _O2       31.5030   29.2890   18.5870    O  263  MOF        -0.641000
   2120  _O2       31.5030   29.2890   44.4190    O  264  MOF        -0.641000
   2121  _O2       20.1620   22.3750    7.2450    O  265  MOF        -0.641000
   2122  _O2       20.1620   22.3750   33.0780    O  266  MOF        -0.641000
   2123  _O2       20.1620   48.2070    7.2450    O  267  MOF        -0.641000
   2124  _O2       20.1620   48.2070   33.0780    O  268  MOF        -0.641000
   2125  _O2       45.9940   22.3750    7.2450    O  269  MOF        -0.641000
   2126  _O2       45.9940   22.3750   33.0780    O  270  MOF        -0.641000
   2127  _O2       45.9940   48.2070    7.2450    O  271  MOF        -0.641000
   2128  _O2       45.9940   48.2070   33.0780    O  272  MOF        -0.641000
   2129  _O2       20.1620    3.4570    7.2450    O  273  MOF        -0.641000
   2130  _O2       20.1620    3.4570   33.0780    O  274  MOF        -0.641000
   2131  _O2       20.1620   29.2890    7.2450    O  275  MOF        -0.641000
   2132  _O2       20.1620   29.2890   33.0780    O  276  MOF        -0.641000
   2133  _O2       45.9940    3.4570    7.2450    O  277  MOF        -0.641000
   2134  _O2       45.9940    3.4570   33.0780    O  278  MOF        -0.641000
   2135  _O2       45.9940   29.2890    7.2450    O  279  MOF        -0.641000
   2136  _O2       45.9940   29.2890   33.0780    O  280  MOF        -0.641000
   2137  _O2        5.6710   22.3750   18.5870    O  281  MOF        -0.641000
   2138  _O2        5.6710   22.3750   44.4190    O  282  MOF        -0.641000
   2139  _O2        5.6710   48.2070   18.5870    O  283  MOF        -0.641000
   2140  _O2        5.6710   48.2070   44.4190    O  284  MOF        -0.641000
   2141  _O2       31.5030   22.3750   18.5870    O  285  MOF        -0.641000
   2142  _O2       31.5030   22.3750   44.4190    O  286  MOF        -0.641000
   2143  _O2       31.5030   48.2070   18.5870    O  287  MOF        -0.641000
   2144  _O2       31.5030   48.2070   44.4190    O  288  MOF        -0.641000
   2145  _O2       20.1620   22.3750   18.5870    O  289  MOF        -0.641000
   2146  _O2       20.1620   22.3750   44.4190    O  290  MOF        -0.641000
   2147  _O2       20.1620   48.2070   18.5870    O  291  MOF        -0.641000
   2148  _O2       20.1620   48.2070   44.4190    O  292  MOF        -0.641000
   2149  _O2       45.9940   22.3750   18.5870    O  293  MOF        -0.641000
   2150  _O2       45.9940   22.3750   44.4190    O  294  MOF        -0.641000
   2151  _O2       45.9940   48.2070   18.5870    O  295  MOF        -0.641000
   2152  _O2       45.9940   48.2070   44.4190    O  296  MOF        -0.641000
   2153  _O2        5.6710    3.4570    7.2450    O  297  MOF        -0.641000
   2154  _O2        5.6710    3.4570   33.0780    O  298  MOF        -0.641000
   2155  _O2        5.6710   29.2890    7.2450    O  299  MOF        -0.641000
   2156  _O2        5.6710   29.2890   33.0780    O  300  MOF        -0.641000
   2157  _O2       31.5030    3.4570    7.2450    O  301  MOF        -0.641000
   2158  _O2       31.5030    3.4570   33.0780    O  302  MOF        -0.641000
   2159  _O2       31.5030   29.2890    7.2450    O  303  MOF        -0.641000
   2160  _O2       31.5030   29.2890   33.0780    O  304  MOF        -0.641000
   2161  _O2        5.6710   22.3750    7.2450    O  305  MOF        -0.641000
   2162  _O2        5.6710   22.3750   33.0780    O  306  MOF        -0.641000
   2163  _O2        5.6710   48.2070    7.2450    O  307  MOF        -0.641000
   2164  _O2        5.6710   48.2070   33.0780    O  308  MOF        -0.641000
   2165  _O2       31.5030   22.3750    7.2450    O  309  MOF        -0.641000
   2166  _O2       31.5030   22.3750   33.0780    O  310  MOF        -0.641000
   2167  _O2       31.5030   48.2070    7.2450    O  311  MOF        -0.641000
   2168  _O2       31.5030   48.2070   33.0780    O  312  MOF        -0.641000
   2169  _O2       20.1620    3.4570   18.5870    O  313  MOF        -0.641000
   2170  _O2       20.1620    3.4570   44.4190    O  314  MOF        -0.641000
   2171  _O2       20.1620   29.2890   18.5870    O  315  MOF        -0.641000
   2172  _O2       20.1620   29.2890   44.4190    O  316  MOF        -0.641000
   2173  _O2       45.9940    3.4570   18.5870    O  317  MOF        -0.641000
   2174  _O2       45.9940    3.4570   44.4190    O  318  MOF        -0.641000
   2175  _O2       45.9940   29.2890   18.5870    O  319  MOF        -0.641000
   2176  _O2       45.9940   29.2890   44.4190    O  320  MOF        -0.641000
   2177  _O2        3.4570    7.2450   20.1620    O  321  MOF        -0.641000
   2178  _O2        3.4570    7.2450   45.9940    O  322  MOF        -0.641000
   2179  _O2        3.4570   33.0780   20.1620    O  323  MOF        -0.641000
   2180  _O2        3.4570   33.0780   45.9940    O  324  MOF        -0.641000
   2181  _O2       29.2890    7.2450   20.1620    O  325  MOF        -0.641000
   2182  _O2       29.2890    7.2450   45.9940    O  326  MOF        -0.641000
   2183  _O2       29.2890   33.0780   20.1620    O  327  MOF        -0.641000
   2184  _O2       29.2890   33.0780   45.9940    O  328  MOF        -0.641000
   2185  _O2       22.3750   18.5870    5.6710    O  329  MOF        -0.641000
   2186  _O2       22.3750   18.5870   31.5030    O  330  MOF        -0.641000
   2187  _O2       22.3750   44.4190    5.6710    O  331  MOF        -0.641000
   2188  _O2       22.3750   44.4190   31.5030    O  332  MOF        -0.641000
   2189  _O2       48.2070   18.5870    5.6710    O  333  MOF        -0.641000
   2190  _O2       48.2070   18.5870   31.5030    O  334  MOF        -0.641000
   2191  _O2       48.2070   44.4190    5.6710    O  335  MOF        -0.641000
   2192  _O2       48.2070   44.4190   31.5030    O  336  MOF        -0.641000
   2193  _O2        3.4570   18.5870    5.6710    O  337  MOF        -0.641000
   2194  _O2        3.4570   18.5870   31.5030    O  338  MOF        -0.641000
   2195  _O2        3.4570   44.4190    5.6710    O  339  MOF        -0.641000
   2196  _O2        3.4570   44.4190   31.5030    O  340  MOF        -0.641000
   2197  _O2       29.2890   18.5870    5.6710    O  341  MOF        -0.641000
   2198  _O2       29.2890   18.5870   31.5030    O  342  MOF        -0.641000
   2199  _O2       29.2890   44.4190    5.6710    O  343  MOF        -0.641000
   2200  _O2       29.2890   44.4190   31.5030    O  344  MOF        -0.641000
   2201  _O2       22.3750    7.2450   20.1620    O  345  MOF        -0.641000
   2202  _O2       22.3750    7.2450   45.9940    O  346  MOF        -0.641000
   2203  _O2       22.3750   33.0780   20.1620    O  347  MOF        -0.641000
   2204  _O2       22.3750   33.0780   45.9940    O  348  MOF        -0.641000
   2205  _O2       48.2070    7.2450   20.1620    O  349  MOF        -0.641000
   2206  _O2       48.2070    7.2450   45.9940    O  350  MOF        -0.641000
   2207  _O2       48.2070   33.0780   20.1620    O  351  MOF        -0.641000
   2208  _O2       48.2070   33.0780   45.9940    O  352  MOF        -0.641000
   2209  _O2       22.3750    7.2450    5.6710    O  353  MOF        -0.641000
   2210  _O2       22.3750    7.2450   31.5030    O  354  MOF        -0.641000
   2211  _O2       22.3750   33.0780    5.6710    O  355  MOF        -0.641000
   2212  _O2       22.3750   33.0780   31.5030    O  356  MOF        -0.641000
   2213  _O2       48.2070    7.2450    5.6710    O  357  MOF        -0.641000
   2214  _O2       48.2070    7.2450   31.5030    O  358  MOF        -0.641000
   2215  _O2       48.2070   33.0780    5.6710    O  359  MOF        -0.641000
   2216  _O2       48.2070   33.0780   31.5030    O  360  MOF        -0.641000
   2217  _O2        3.4570   18.5870   20.1620    O  361  MOF        -0.641000
   2218  _O2        3.4570   18.5870   45.9940    O  362  MOF        -0.641000
   2219  _O2        3.4570   44.4190   20.1620    O  363  MOF        -0.641000
   2220  _O2        3.4570   44.4190   45.9940    O  364  MOF        -0.641000
   2221  _O2       29.2890   18.5870   20.1620    O  365  MOF        -0.641000
   2222  _O2       29.2890   18.5870   45.9940    O  366  MOF        -0.641000
   2223  _O2       29.2890   44.4190   20.1620    O  367  MOF        -0.641000
   2224  _O2       29.2890   44.4190   45.9940    O  368  MOF        -0.641000
   2225  _O2       22.3750   18.5870   20.1620    O  369  MOF        -0.641000
   2226  _O2       22.3750   18.5870   45.9940    O  370  MOF        -0.641000
   2227  _O2       22.3750   44.4190   20.1620    O  371  MOF        -0.641000
   2228  _O2       22.3750   44.4190   45.9940    O  372  MOF        -0.641000
   2229  _O2       48.2070   18.5870   20.1620    O  373  MOF        -0.641000
   2230  _O2       48.2070   18.5870   45.9940    O  374  MOF        -0.641000
   2231  _O2       48.2070   44.4190   20.1620    O  375  MOF        -0.641000
   2232  _O2       48.2070   44.4190   45.9940    O  376  MOF        -0.641000
   2233  _O2        3.4570    7.2450    5.6710    O  377  MOF        -0.641000
   2234  _O2        3.4570    7.2450   31.5030    O  378  MOF        -0.641000
   2235  _O2        3.4570   33.0780    5.6710    O  379  MOF        -0.641000
   2236  _O2        3.4570   33.0780   31.5030    O  380  MOF        -0.641000
   2237  _O2       29.2890    7.2450    5.6710    O  381  MOF        -0.641000
   2238  _O2       29.2890    7.2450   31.5030    O  382  MOF        -0.641000
   2239  _O2       29.2890   33.0780    5.6710    O  383  MOF        -0.641000
   2240  _O2       29.2890   33.0780   31.5030    O  384  MOF        -0.641000
   2241  _O2        5.6710   20.1620   16.3730    O  385  MOF        -0.641000
   2242  _O2        5.6710   20.1620   42.2060    O  386  MOF        -0.641000
   2243  _O2        5.6710   45.9940   16.3730    O  387  MOF        -0.641000
   2244  _O2        5.6710   45.9940   42.2060    O  388  MOF        -0.641000
   2245  _O2       31.5030   20.1620   16.3730    O  389  MOF        -0.641000
   2246  _O2       31.5030   20.1620   42.2060    O  390  MOF        -0.641000
   2247  _O2       31.5030   45.9940   16.3730    O  391  MOF        -0.641000
   2248  _O2       31.5030   45.9940   42.2060    O  392  MOF        -0.641000
   2249  _O2       20.1620    5.6710    9.4590    O  393  MOF        -0.641000
   2250  _O2       20.1620    5.6710   35.2910    O  394  MOF        -0.641000
   2251  _O2       20.1620   31.5030    9.4590    O  395  MOF        -0.641000
   2252  _O2       20.1620   31.5030   35.2910    O  396  MOF        -0.641000
   2253  _O2       45.9940    5.6710    9.4590    O  397  MOF        -0.641000
   2254  _O2       45.9940    5.6710   35.2910    O  398  MOF        -0.641000
   2255  _O2       45.9940   31.5030    9.4590    O  399  MOF        -0.641000
   2256  _O2       45.9940   31.5030   35.2910    O  400  MOF        -0.641000
   2257  _O2       20.1620    5.6710   16.3730    O  401  MOF        -0.641000
   2258  _O2       20.1620    5.6710   42.2060    O  402  MOF        -0.641000
   2259  _O2       20.1620   31.5030   16.3730    O  403  MOF        -0.641000
   2260  _O2       20.1620   31.5030   42.2060    O  404  MOF        -0.641000
   2261  _O2       45.9940    5.6710   16.3730    O  405  MOF        -0.641000
   2262  _O2       45.9940    5.6710   42.2060    O  406  MOF        -0.641000
   2263  _O2       45.9940   31.5030   16.3730    O  407  MOF        -0.641000
   2264  _O2       45.9940   31.5030   42.2060    O  408  MOF        -0.641000
   2265  _O2        5.6710   20.1620    9.4590    O  409  MOF        -0.641000
   2266  _O2        5.6710   20.1620   35.2910    O  410  MOF        -0.641000
   2267  _O2        5.6710   45.9940    9.4590    O  411  MOF        -0.641000
   2268  _O2        5.6710   45.9940   35.2910    O  412  MOF        -0.641000
   2269  _O2       31.5030   20.1620    9.4590    O  413  MOF        -0.641000
   2270  _O2       31.5030   20.1620   35.2910    O  414  MOF        -0.641000
   2271  _O2       31.5030   45.9940    9.4590    O  415  MOF        -0.641000
   2272  _O2       31.5030   45.9940   35.2910    O  416  MOF        -0.641000
   2273  _O2       20.1620   20.1620    9.4590    O  417  MOF        -0.641000
   2274  _O2       20.1620   20.1620   35.2910    O  418  MOF        -0.641000
   2275  _O2       20.1620   45.9940    9.4590    O  419  MOF        -0.641000
   2276  _O2       20.1620   45.9940   35.2910    O  420  MOF        -0.641000
   2277  _O2       45.9940   20.1620    9.4590    O  421  MOF        -0.641000
   2278  _O2       45.9940   20.1620   35.2910    O  422  MOF        -0.641000
   2279  _O2       45.9940   45.9940    9.4590    O  423  MOF        -0.641000
   2280  _O2       45.9940   45.9940   35.2910    O  424  MOF        -0.641000
   2281  _O2        5.6710    5.6710   16.3730    O  425  MOF        -0.641000
   2282  _O2        5.6710    5.6710   42.2060    O  426  MOF        -0.641000
   2283  _O2        5.6710   31.5030   16.3730    O  427  MOF        -0.641000
   2284  _O2        5.6710   31.5030   42.2060    O  428  MOF        -0.641000
   2285  _O2       31.5030    5.6710   16.3730    O  429  MOF        -0.641000
   2286  _O2       31.5030    5.6710   42.2060    O  430  MOF        -0.641000
   2287  _O2       31.5030   31.5030   16.3730    O  431  MOF        -0.641000
   2288  _O2       31.5030   31.5030   42.2060    O  432  MOF        -0.641000
   2289  _O2        5.6710    5.6710    9.4590    O  433  MOF        -0.641000
   2290  _O2        5.6710    5.6710   35.2910    O  434  MOF        -0.641000
   2291  _O2        5.6710   31.5030    9.4590    O  435  MOF        -0.641000
   2292  _O2        5.6710   31.5030   35.2910    O  436  MOF        -0.641000
   2293  _O2       31.5030    5.6710    9.4590    O  437  MOF        -0.641000
   2294  _O2       31.5030    5.6710   35.2910    O  438  MOF        -0.641000
   2295  _O2       31.5030   31.5030    9.4590    O  439  MOF        -0.641000
   2296  _O2       31.5030   31.5030   35.2910    O  440  MOF        -0.641000
   2297  _O2       20.1620   20.1620   16.3730    O  441  MOF        -0.641000
   2298  _O2       20.1620   20.1620   42.2060    O  442  MOF        -0.641000
   2299  _O2       20.1620   45.9940   16.3730    O  443  MOF        -0.641000
   2300  _O2       20.1620   45.9940   42.2060    O  444  MOF        -0.641000
   2301  _O2       45.9940   20.1620   16.3730    O  445  MOF        -0.641000
   2302  _O2       45.9940   20.1620   42.2060    O  446  MOF        -0.641000
   2303  _O2       45.9940   45.9940   16.3730    O  447  MOF        -0.641000
   2304  _O2       45.9940   45.9940   42.2060    O  448  MOF        -0.641000
   2305  _O2        7.2450   16.3730   18.5870    O  449  MOF        -0.641000
   2306  _O2        7.2450   16.3730   44.4190    O  450  MOF        -0.641000
   2307  _O2        7.2450   42.2060   18.5870    O  451  MOF        -0.641000
   2308  _O2        7.2450   42.2060   44.4190    O  452  MOF        -0.641000
   2309  _O2       33.0780   16.3730   18.5870    O  453  MOF        -0.641000
   2310  _O2       33.0780   16.3730   44.4190    O  454  MOF        -0.641000
   2311  _O2       33.0780   42.2060   18.5870    O  455  MOF        -0.641000
   2312  _O2       33.0780   42.2060   44.4190    O  456  MOF        -0.641000
   2313  _O2       18.5870    9.4590    7.2450    O  457  MOF        -0.641000
   2314  _O2       18.5870    9.4590   33.0780    O  458  MOF        -0.641000
   2315  _O2       18.5870   35.2910    7.2450    O  459  MOF        -0.641000
   2316  _O2       18.5870   35.2910   33.0780    O  460  MOF        -0.641000
   2317  _O2       44.4190    9.4590    7.2450    O  461  MOF        -0.641000
   2318  _O2       44.4190    9.4590   33.0780    O  462  MOF        -0.641000
   2319  _O2       44.4190   35.2910    7.2450    O  463  MOF        -0.641000
   2320  _O2       44.4190   35.2910   33.0780    O  464  MOF        -0.641000
   2321  _O2       18.5870   16.3730    7.2450    O  465  MOF        -0.641000
   2322  _O2       18.5870   16.3730   33.0780    O  466  MOF        -0.641000
   2323  _O2       18.5870   42.2060    7.2450    O  467  MOF        -0.641000
   2324  _O2       18.5870   42.2060   33.0780    O  468  MOF        -0.641000
   2325  _O2       44.4190   16.3730    7.2450    O  469  MOF        -0.641000
   2326  _O2       44.4190   16.3730   33.0780    O  470  MOF        -0.641000
   2327  _O2       44.4190   42.2060    7.2450    O  471  MOF        -0.641000
   2328  _O2       44.4190   42.2060   33.0780    O  472  MOF        -0.641000
   2329  _O2        7.2450    9.4590   18.5870    O  473  MOF        -0.641000
   2330  _O2        7.2450    9.4590   44.4190    O  474  MOF        -0.641000
   2331  _O2        7.2450   35.2910   18.5870    O  475  MOF        -0.641000
   2332  _O2        7.2450   35.2910   44.4190    O  476  MOF        -0.641000
   2333  _O2       33.0780    9.4590   18.5870    O  477  MOF        -0.641000
   2334  _O2       33.0780    9.4590   44.4190    O  478  MOF        -0.641000
   2335  _O2       33.0780   35.2910   18.5870    O  479  MOF        -0.641000
   2336  _O2       33.0780   35.2910   44.4190    O  480  MOF        -0.641000
   2337  _O2        7.2450    9.4590    7.2450    O  481  MOF        -0.641000
   2338  _O2        7.2450    9.4590   33.0780    O  482  MOF        -0.641000
   2339  _O2        7.2450   35.2910    7.2450    O  483  MOF        -0.641000
   2340  _O2        7.2450   35.2910   33.0780    O  484  MOF        -0.641000
   2341  _O2       33.0780    9.4590    7.2450    O  485  MOF        -0.641000
   2342  _O2       33.0780    9.4590   33.0780    O  486  MOF        -0.641000
   2343  _O2       33.0780   35.2910    7.2450    O  487  MOF        -0.641000
   2344  _O2       33.0780   35.2910   33.0780    O  488  MOF        -0.641000
   2345  _O2       18.5870   16.3730   18.5870    O  489  MOF        -0.641000
   2346  _O2       18.5870   16.3730   44.4190    O  490  MOF        -0.641000
   2347  _O2       18.5870   42.2060   18.5870    O  491  MOF        -0.641000
   2348  _O2       18.5870   42.2060   44.4190    O  492  MOF        -0.641000
   2349  _O2       44.4190   16.3730   18.5870    O  493  MOF        -0.641000
   2350  _O2       44.4190   16.3730   44.4190    O  494  MOF        -0.641000
   2351  _O2       44.4190   42.2060   18.5870    O  495  MOF        -0.641000
   2352  _O2       44.4190   42.2060   44.4190    O  496  MOF        -0.641000
   2353  _O2       18.5870    9.4590   18.5870    O  497  MOF        -0.641000
   2354  _O2       18.5870    9.4590   44.4190    O  498  MOF        -0.641000
   2355  _O2       18.5870   35.2910   18.5870    O  499  MOF        -0.641000
   2356  _O2       18.5870   35.2910   44.4190    O  500  MOF        -0.641000
   2357  _O2       44.4190    9.4590   18.5870    O  501  MOF        -0.641000
   2358  _O2       44.4190    9.4590   44.4190    O  502  MOF        -0.641000
   2359  _O2       44.4190   35.2910   18.5870    O  503  MOF        -0.641000
   2360  _O2       44.4190   35.2910   44.4190    O  504  MOF        -0.641000
   2361  _O2        7.2450   16.3730    7.2450    O  505  MOF        -0.641000
   2362  _O2        7.2450   16.3730   33.0780    O  506  MOF        -0.641000
   2363  _O2        7.2450   42.2060    7.2450    O  507  MOF        -0.641000
   2364  _O2        7.2450   42.2060   33.0780    O  508  MOF        -0.641000
   2365  _O2       33.0780   16.3730    7.2450    O  509  MOF        -0.641000
   2366  _O2       33.0780   16.3730   33.0780    O  510  MOF        -0.641000
   2367  _O2       33.0780   42.2060    7.2450    O  511  MOF        -0.641000
   2368  _O2       33.0780   42.2060   33.0780    O  512  MOF        -0.641000
   2369  _O2        7.2450   18.5870    9.4590    O  513  MOF        -0.641000
   2370  _O2        7.2450   18.5870   35.2910    O  514  MOF        -0.641000
   2371  _O2        7.2450   44.4190    9.4590    O  515  MOF        -0.641000
   2372  _O2        7.2450   44.4190   35.2910    O  516  MOF        -0.641000
   2373  _O2       33.0780   18.5870    9.4590    O  517  MOF        -0.641000
   2374  _O2       33.0780   18.5870   35.2910    O  518  MOF        -0.641000
   2375  _O2       33.0780   44.4190    9.4590    O  519  MOF        -0.641000
   2376  _O2       33.0780   44.4190   35.2910    O  520  MOF        -0.641000
   2377  _O2       18.5870    7.2450   16.3730    O  521  MOF        -0.641000
   2378  _O2       18.5870    7.2450   42.2060    O  522  MOF        -0.641000
   2379  _O2       18.5870   33.0780   16.3730    O  523  MOF        -0.641000
   2380  _O2       18.5870   33.0780   42.2060    O  524  MOF        -0.641000
   2381  _O2       44.4190    7.2450   16.3730    O  525  MOF        -0.641000
   2382  _O2       44.4190    7.2450   42.2060    O  526  MOF        -0.641000
   2383  _O2       44.4190   33.0780   16.3730    O  527  MOF        -0.641000
   2384  _O2       44.4190   33.0780   42.2060    O  528  MOF        -0.641000
   2385  _O2       18.5870    7.2450    9.4590    O  529  MOF        -0.641000
   2386  _O2       18.5870    7.2450   35.2910    O  530  MOF        -0.641000
   2387  _O2       18.5870   33.0780    9.4590    O  531  MOF        -0.641000
   2388  _O2       18.5870   33.0780   35.2910    O  532  MOF        -0.641000
   2389  _O2       44.4190    7.2450    9.4590    O  533  MOF        -0.641000
   2390  _O2       44.4190    7.2450   35.2910    O  534  MOF        -0.641000
   2391  _O2       44.4190   33.0780    9.4590    O  535  MOF        -0.641000
   2392  _O2       44.4190   33.0780   35.2910    O  536  MOF        -0.641000
   2393  _O2        7.2450   18.5870   16.3730    O  537  MOF        -0.641000
   2394  _O2        7.2450   18.5870   42.2060    O  538  MOF        -0.641000
   2395  _O2        7.2450   44.4190   16.3730    O  539  MOF        -0.641000
   2396  _O2        7.2450   44.4190   42.2060    O  540  MOF        -0.641000
   2397  _O2       33.0780   18.5870   16.3730    O  541  MOF        -0.641000
   2398  _O2       33.0780   18.5870   42.2060    O  542  MOF        -0.641000
   2399  _O2       33.0780   44.4190   16.3730    O  543  MOF        -0.641000
   2400  _O2       33.0780   44.4190   42.2060    O  544  MOF        -0.641000
   2401  _O2        7.2450    7.2450   16.3730    O  545  MOF        -0.641000
   2402  _O2        7.2450    7.2450   42.2060    O  546  MOF        -0.641000
   2403  _O2        7.2450   33.0780   16.3730    O  547  MOF        -0.641000
   2404  _O2        7.2450   33.0780   42.2060    O  548  MOF        -0.641000
   2405  _O2       33.0780    7.2450   16.3730    O  549  MOF        -0.641000
   2406  _O2       33.0780    7.2450   42.2060    O  550  MOF        -0.641000
   2407  _O2       33.0780   33.0780   16.3730    O  551  MOF        -0.641000
   2408  _O2       33.0780   33.0780   42.2060    O  552  MOF        -0.641000
   2409  _O2       18.5870   18.5870    9.4590    O  553  MOF        -0.641000
   2410  _O2       18.5870   18.5870   35.2910    O  554  MOF        -0.641000
   2411  _O2       18.5870   44.4190    9.4590    O  555  MOF        -0.641000
   2412  _O2       18.5870   44.4190   35.2910    O  556  MOF        -0.641000
   2413  _O2       44.4190   18.5870    9.4590    O  557  MOF        -0.641000
   2414  _O2       44.4190   18.5870   35.2910    O  558  MOF        -0.641000
   2415  _O2       44.4190   44.4190    9.4590    O  559  MOF        -0.641000
   2416  _O2       44.4190   44.4190   35.2910    O  560  MOF        -0.641000
   2417  _O2       18.5870   18.5870   16.3730    O  561  MOF        -0.641000
   2418  _O2       18.5870   18.5870   42.2060    O  562  MOF        -0.641000
   2419  _O2       18.5870   44.4190   16.3730    O  563  MOF        -0.641000
   2420  _O2       18.5870   44.4190   42.2060    O  564  MOF        -0.641000
   2421  _O2       44.4190   18.5870   16.3730    O  565  MOF        -0.641000
   2422  _O2       44.4190   18.5870   42.2060    O  566  MOF        -0.641000
   2423  _O2       44.4190   44.4190   16.3730    O  567  MOF        -0.641000
   2424  _O2       44.4190   44.4190   42.2060    O  568  MOF        -0.641000
   2425  _O2        7.2450    7.2450    9.4590    O  569  MOF        -0.641000
   2426  _O2        7.2450    7.2450   35.2910    O  570  MOF        -0.641000
   2427  _O2        7.2450   33.0780    9.4590    O  571  MOF        -0.641000
   2428  _O2        7.2450   33.0780   35.2910    O  572  MOF        -0.641000
   2429  _O2       33.0780    7.2450    9.4590    O  573  MOF        -0.641000
   2430  _O2       33.0780    7.2450   35.2910    O  574  MOF        -0.641000
   2431  _O2       33.0780   33.0780    9.4590    O  575  MOF        -0.641000
   2432  _O2       33.0780   33.0780   35.2910    O  576  MOF        -0.641000
   2433  _O2        5.6710   16.3730    5.6710    O  577  MOF        -0.641000
   2434  _O2        5.6710   16.3730   31.5030    O  578  MOF        -0.641000
   2435  _O2        5.6710   42.2060    5.6710    O  579  MOF        -0.641000
   2436  _O2        5.6710   42.2060   31.5030    O  580  MOF        -0.641000
   2437  _O2       31.5030   16.3730    5.6710    O  581  MOF        -0.641000
   2438  _O2       31.5030   16.3730   31.5030    O  582  MOF        -0.641000
   2439  _O2       31.5030   42.2060    5.6710    O  583  MOF        -0.641000
   2440  _O2       31.5030   42.2060   31.5030    O  584  MOF        -0.641000
   2441  _O2       20.1620    9.4590   20.1620    O  585  MOF        -0.641000
   2442  _O2       20.1620    9.4590   45.9940    O  586  MOF        -0.641000
   2443  _O2       20.1620   35.2910   20.1620    O  587  MOF        -0.641000
   2444  _O2       20.1620   35.2910   45.9940    O  588  MOF        -0.641000
   2445  _O2       45.9940    9.4590   20.1620    O  589  MOF        -0.641000
   2446  _O2       45.9940    9.4590   45.9940    O  590  MOF        -0.641000
   2447  _O2       45.9940   35.2910   20.1620    O  591  MOF        -0.641000
   2448  _O2       45.9940   35.2910   45.9940    O  592  MOF        -0.641000
   2449  _O2       20.1620   16.3730   20.1620    O  593  MOF        -0.641000
   2450  _O2       20.1620   16.3730   45.9940    O  594  MOF        -0.641000
   2451  _O2       20.1620   42.2060   20.1620    O  595  MOF        -0.641000
   2452  _O2       20.1620   42.2060   45.9940    O  596  MOF        -0.641000
   2453  _O2       45.9940   16.3730   20.1620    O  597  MOF        -0.641000
   2454  _O2       45.9940   16.3730   45.9940    O  598  MOF        -0.641000
   2455  _O2       45.9940   42.2060   20.1620    O  599  MOF        -0.641000
   2456  _O2       45.9940   42.2060   45.9940    O  600  MOF        -0.641000
   2457  _O2        5.6710    9.4590    5.6710    O  601  MOF        -0.641000
   2458  _O2        5.6710    9.4590   31.5030    O  602  MOF        -0.641000
   2459  _O2        5.6710   35.2910    5.6710    O  603  MOF        -0.641000
   2460  _O2        5.6710   35.2910   31.5030    O  604  MOF        -0.641000
   2461  _O2       31.5030    9.4590    5.6710    O  605  MOF        -0.641000
   2462  _O2       31.5030    9.4590   31.5030    O  606  MOF        -0.641000
   2463  _O2       31.5030   35.2910    5.6710    O  607  MOF        -0.641000
   2464  _O2       31.5030   35.2910   31.5030    O  608  MOF        -0.641000
   2465  _O2       20.1620    9.4590    5.6710    O  609  MOF        -0.641000
   2466  _O2       20.1620    9.4590   31.5030    O  610  MOF        -0.641000
   2467  _O2       20.1620   35.2910    5.6710    O  611  MOF        -0.641000
   2468  _O2       20.1620   35.2910   31.5030    O  612  MOF        -0.641000
   2469  _O2       45.9940    9.4590    5.6710    O  613  MOF        -0.641000
   2470  _O2       45.9940    9.4590   31.5030    O  614  MOF        -0.641000
   2471  _O2       45.9940   35.2910    5.6710    O  615  MOF        -0.641000
   2472  _O2       45.9940   35.2910   31.5030    O  616  MOF        -0.641000
   2473  _O2        5.6710   16.3730   20.1620    O  617  MOF        -0.641000
   2474  _O2        5.6710   16.3730   45.9940    O  618  MOF        -0.641000
   2475  _O2        5.6710   42.2060   20.1620    O  619  MOF        -0.641000
   2476  _O2        5.6710   42.2060   45.9940    O  620  MOF        -0.641000
   2477  _O2       31.5030   16.3730   20.1620    O  621  MOF        -0.641000
   2478  _O2       31.5030   16.3730   45.9940    O  622  MOF        -0.641000
   2479  _O2       31.5030   42.2060   20.1620    O  623  MOF        -0.641000
   2480  _O2       31.5030   42.2060   45.9940    O  624  MOF        -0.641000
   2481  _O2        5.6710    9.4590   20.1620    O  625  MOF        -0.641000
   2482  _O2        5.6710    9.4590   45.9940    O  626  MOF        -0.641000
   2483  _O2        5.6710   35.2910   20.1620    O  627  MOF        -0.641000
   2484  _O2        5.6710   35.2910   45.9940    O  628  MOF        -0.641000
   2485  _O2       31.5030    9.4590   20.1620    O  629  MOF        -0.641000
   2486  _O2       31.5030    9.4590   45.9940    O  630  MOF        -0.641000
   2487  _O2       31.5030   35.2910   20.1620    O  631  MOF        -0.641000
   2488  _O2       31.5030   35.2910   45.9940    O  632  MOF        -0.641000
   2489  _O2       20.1620   16.3730    5.6710    O  633  MOF        -0.641000
   2490  _O2       20.1620   16.3730   31.5030    O  634  MOF        -0.641000
   2491  _O2       20.1620   42.2060    5.6710    O  635  MOF        -0.641000
   2492  _O2       20.1620   42.2060   31.5030    O  636  MOF        -0.641000
   2493  _O2       45.9940   16.3730    5.6710    O  637  MOF        -0.641000
   2494  _O2       45.9940   16.3730   31.5030    O  638  MOF        -0.641000
   2495  _O2       45.9940   42.2060    5.6710    O  639  MOF        -0.641000
   2496  _O2       45.9940   42.2060   31.5030    O  640  MOF        -0.641000
   2497  _O2       16.3730    5.6710   20.1620    O  641  MOF        -0.641000
   2498  _O2       16.3730    5.6710   45.9940    O  642  MOF        -0.641000
   2499  _O2       16.3730   31.5030   20.1620    O  643  MOF        -0.641000
   2500  _O2       16.3730   31.5030   45.9940    O  644  MOF        -0.641000
   2501  _O2       42.2060    5.6710   20.1620    O  645  MOF        -0.641000
   2502  _O2       42.2060    5.6710   45.9940    O  646  MOF        -0.641000
   2503  _O2       42.2060   31.5030   20.1620    O  647  MOF        -0.641000
   2504  _O2       42.2060   31.5030   45.9940    O  648  MOF        -0.641000
   2505  _O2        9.4590   20.1620    5.6710    O  649  MOF        -0.641000
   2506  _O2        9.4590   20.1620   31.5030    O  650  MOF        -0.641000
   2507  _O2        9.4590   45.9940    5.6710    O  651  MOF        -0.641000
   2508  _O2        9.4590   45.9940   31.5030    O  652  MOF        -0.641000
   2509  _O2       35.2910   20.1620    5.6710    O  653  MOF        -0.641000
   2510  _O2       35.2910   20.1620   31.5030    O  654  MOF        -0.641000
   2511  _O2       35.2910   45.9940    5.6710    O  655  MOF        -0.641000
   2512  _O2       35.2910   45.9940   31.5030    O  656  MOF        -0.641000
   2513  _O2       16.3730   20.1620    5.6710    O  657  MOF        -0.641000
   2514  _O2       16.3730   20.1620   31.5030    O  658  MOF        -0.641000
   2515  _O2       16.3730   45.9940    5.6710    O  659  MOF        -0.641000
   2516  _O2       16.3730   45.9940   31.5030    O  660  MOF        -0.641000
   2517  _O2       42.2060   20.1620    5.6710    O  661  MOF        -0.641000
   2518  _O2       42.2060   20.1620   31.5030    O  662  MOF        -0.641000
   2519  _O2       42.2060   45.9940    5.6710    O  663  MOF        -0.641000
   2520  _O2       42.2060   45.9940   31.5030    O  664  MOF        -0.641000
   2521  _O2        9.4590    5.6710   20.1620    O  665  MOF        -0.641000
   2522  _O2        9.4590    5.6710   45.9940    O  666  MOF        -0.641000
   2523  _O2        9.4590   31.5030   20.1620    O  667  MOF        -0.641000
   2524  _O2        9.4590   31.5030   45.9940    O  668  MOF        -0.641000
   2525  _O2       35.2910    5.6710   20.1620    O  669  MOF        -0.641000
   2526  _O2       35.2910    5.6710   45.9940    O  670  MOF        -0.641000
   2527  _O2       35.2910   31.5030   20.1620    O  671  MOF        -0.641000
   2528  _O2       35.2910   31.5030   45.9940    O  672  MOF        -0.641000
   2529  _O2        9.4590   20.1620   20.1620    O  673  MOF        -0.641000
   2530  _O2        9.4590   20.1620   45.9940    O  674  MOF        -0.641000
   2531  _O2        9.4590   45.9940   20.1620    O  675  MOF        -0.641000
   2532  _O2        9.4590   45.9940   45.9940    O  676  MOF        -0.641000
   2533  _O2       35.2910   20.1620   20.1620    O  677  MOF        -0.641000
   2534  _O2       35.2910   20.1620   45.9940    O  678  MOF        -0.641000
   2535  _O2       35.2910   45.9940   20.1620    O  679  MOF        -0.641000
   2536  _O2       35.2910   45.9940   45.9940    O  680  MOF        -0.641000
   2537  _O2       16.3730    5.6710    5.6710    O  681  MOF        -0.641000
   2538  _O2       16.3730    5.6710   31.5030    O  682  MOF        -0.641000
   2539  _O2       16.3730   31.5030    5.6710    O  683  MOF        -0.641000
   2540  _O2       16.3730   31.5030   31.5030    O  684  MOF        -0.641000
   2541  _O2       42.2060    5.6710    5.6710    O  685  MOF        -0.641000
   2542  _O2       42.2060    5.6710   31.5030    O  686  MOF        -0.641000
   2543  _O2       42.2060   31.5030    5.6710    O  687  MOF        -0.641000
   2544  _O2       42.2060   31.5030   31.5030    O  688  MOF        -0.641000
   2545  _O2        9.4590    5.6710    5.6710    O  689  MOF        -0.641000
   2546  _O2        9.4590    5.6710   31.5030    O  690  MOF        -0.641000
   2547  _O2        9.4590   31.5030    5.6710    O  691  MOF        -0.641000
   2548  _O2        9.4590   31.5030   31.5030    O  692  MOF        -0.641000
   2549  _O2       35.2910    5.6710    5.6710    O  693  MOF        -0.641000
   2550  _O2       35.2910    5.6710   31.5030    O  694  MOF        -0.641000
   2551  _O2       35.2910   31.5030    5.6710    O  695  MOF        -0.641000
   2552  _O2       35.2910   31.5030   31.5030    O  696  MOF        -0.641000
   2553  _O2       16.3730   20.1620   20.1620    O  697  MOF        -0.641000
   2554  _O2       16.3730   20.1620   45.9940    O  698  MOF        -0.641000
   2555  _O2       16.3730   45.9940   20.1620    O  699  MOF        -0.641000
   2556  _O2       16.3730   45.9940   45.9940    O  700  MOF        -0.641000
   2557  _O2       42.2060   20.1620   20.1620    O  701  MOF        -0.641000
   2558  _O2       42.2060   20.1620   45.9940    O  702  MOF        -0.641000
   2559  _O2       42.2060   45.9940   20.1620    O  703  MOF        -0.641000
   2560  _O2       42.2060   45.9940   45.9940    O  704  MOF        -0.641000
   2561  _O2       16.3730    7.2450    7.2450    O  705  MOF        -0.641000
   2562  _O2       16.3730    7.2450   33.0780    O  706  MOF        -0.641000
   2563  _O2       16.3730   33.0780    7.2450    O  707  MOF        -0.641000
   2564  _O2       16.3730   33.0780   33.0780    O  708  MOF        -0.641000
   2565  _O2       42.2060    7.2450    7.2450    O  709  MOF        -0.641000
   2566  _O2       42.2060    7.2450   33.0780    O  710  MOF        -0.641000
   2567  _O2       42.2060   33.0780    7.2450    O  711  MOF        -0.641000
   2568  _O2       42.2060   33.0780   33.0780    O  712  MOF        -0.641000
   2569  _O2        9.4590   18.5870   18.5870    O  713  MOF        -0.641000
   2570  _O2        9.4590   18.5870   44.4190    O  714  MOF        -0.641000
   2571  _O2        9.4590   44.4190   18.5870    O  715  MOF        -0.641000
   2572  _O2        9.4590   44.4190   44.4190    O  716  MOF        -0.641000
   2573  _O2       35.2910   18.5870   18.5870    O  717  MOF        -0.641000
   2574  _O2       35.2910   18.5870   44.4190    O  718  MOF        -0.641000
   2575  _O2       35.2910   44.4190   18.5870    O  719  MOF        -0.641000
   2576  _O2       35.2910   44.4190   44.4190    O  720  MOF        -0.641000
   2577  _O2       16.3730   18.5870   18.5870    O  721  MOF        -0.641000
   2578  _O2       16.3730   18.5870   44.4190    O  722  MOF        -0.641000
   2579  _O2       16.3730   44.4190   18.5870    O  723  MOF        -0.641000
   2580  _O2       16.3730   44.4190   44.4190    O  724  MOF        -0.641000
   2581  _O2       42.2060   18.5870   18.5870    O  725  MOF        -0.641000
   2582  _O2       42.2060   18.5870   44.4190    O  726  MOF        -0.641000
   2583  _O2       42.2060   44.4190   18.5870    O  727  MOF        -0.641000
   2584  _O2       42.2060   44.4190   44.4190    O  728  MOF        -0.641000
   2585  _O2        9.4590    7.2450    7.2450    O  729  MOF        -0.641000
   2586  _O2        9.4590    7.2450   33.0780    O  730  MOF        -0.641000
   2587  _O2        9.4590   33.0780    7.2450    O  731  MOF        -0.641000
   2588  _O2        9.4590   33.0780   33.0780    O  732  MOF        -0.641000
   2589  _O2       35.2910    7.2450    7.2450    O  733  MOF        -0.641000
   2590  _O2       35.2910    7.2450   33.0780    O  734  MOF        -0.641000
   2591  _O2       35.2910   33.0780    7.2450    O  735  MOF        -0.641000
   2592  _O2       35.2910   33.0780   33.0780    O  736  MOF        -0.641000
   2593  _O2        9.4590    7.2450   18.5870    O  737  MOF        -0.641000
   2594  _O2        9.4590    7.2450   44.4190    O  738  MOF        -0.641000
   2595  _O2        9.4590   33.0780   18.5870    O  739  MOF        -0.641000
   2596  _O2        9.4590   33.0780   44.4190    O  740  MOF        -0.641000
   2597  _O2       35.2910    7.2450   18.5870    O  741  MOF        -0.641000
   2598  _O2       35.2910    7.2450   44.4190    O  742  MOF        -0.641000
   2599  _O2       35.2910   33.0780   18.5870    O  743  MOF        -0.641000
   2600  _O2       35.2910   33.0780   44.4190    O  744  MOF        -0.641000
   2601  _O2       16.3730   18.5870    7.2450    O  745  MOF        -0.641000
   2602  _O2       16.3730   18.5870   33.0780    O  746  MOF        -0.641000
   2603  _O2       16.3730   44.4190    7.2450    O  747  MOF        -0.641000
   2604  _O2       16.3730   44.4190   33.0780    O  748  MOF        -0.641000
   2605  _O2       42.2060   18.5870    7.2450    O  749  MOF        -0.641000
   2606  _O2       42.2060   18.5870   33.0780    O  750  MOF        -0.641000
   2607  _O2       42.2060   44.4190    7.2450    O  751  MOF        -0.641000
   2608  _O2       42.2060   44.4190   33.0780    O  752  MOF        -0.641000
   2609  _O2        9.4590   18.5870    7.2450    O  753  MOF        -0.641000
   2610  _O2        9.4590   18.5870   33.0780    O  754  MOF        -0.641000
   2611  _O2        9.4590   44.4190    7.2450    O  755  MOF        -0.641000
   2612  _O2        9.4590   44.4190   33.0780    O  756  MOF        -0.641000
   2613  _O2       35.2910   18.5870    7.2450    O  757  MOF        -0.641000
   2614  _O2       35.2910   18.5870   33.0780    O  758  MOF        -0.641000
   2615  _O2       35.2910   44.4190    7.2450    O  759  MOF        -0.641000
   2616  _O2       35.2910   44.4190   33.0780    O  760  MOF        -0.641000
   2617  _O2       16.3730    7.2450   18.5870    O  761  MOF        -0.641000
   2618  _O2       16.3730    7.2450   44.4190    O  762  MOF        -0.641000
   2619  _O2       16.3730   33.0780   18.5870    O  763  MOF        -0.641000
   2620  _O2       16.3730   33.0780   44.4190    O  764  MOF        -0.641000
   2621  _O2       42.2060    7.2450   18.5870    O  765  MOF        -0.641000
   2622  _O2       42.2060    7.2450   44.4190    O  766  MOF        -0.641000
   2623  _O2       42.2060   33.0780   18.5870    O  767  MOF        -0.641000
   2624  _O2       42.2060   33.0780   44.4190    O  768  MOF        -0.641000
   2625  _H3        5.0580    7.8580    1.1440    H    1  MOF        0.162000
   2626  _H3        5.0580    7.8580   26.9770    H    2  MOF        0.162000
   2627  _H3        5.0580   33.6900    1.1440    H    3  MOF        0.162000
   2628  _H3        5.0580   33.6900   26.9770    H    4  MOF        0.162000
   2629  _H3       30.8900    7.8580    1.1440    H    5  MOF        0.162000
   2630  _H3       30.8900    7.8580   26.9770    H    6  MOF        0.162000
   2631  _H3       30.8900   33.6900    1.1440    H    7  MOF        0.162000
   2632  _H3       30.8900   33.6900   26.9770    H    8  MOF        0.162000
   2633  _H3       20.7740   17.9740   24.6880    H    9  MOF        0.162000
   2634  _H3       20.7740   17.9740   50.5200    H   10  MOF        0.162000
   2635  _H3       20.7740   43.8060   24.6880    H   11  MOF        0.162000
   2636  _H3       20.7740   43.8060   50.5200    H   12  MOF        0.162000
   2637  _H3       46.6070   17.9740   24.6880    H   13  MOF        0.162000
   2638  _H3       46.6070   17.9740   50.5200    H   14  MOF        0.162000
   2639  _H3       46.6070   43.8060   24.6880    H   15  MOF        0.162000
   2640  _H3       46.6070   43.8060   50.5200    H   16  MOF        0.162000
   2641  _H3       20.7740   17.9740    1.1440    H   17  MOF        0.162000
   2642  _H3       20.7740   17.9740   26.9770    H   18  MOF        0.162000
   2643  _H3       20.7740   43.8060    1.1440    H   19  MOF        0.162000
   2644  _H3       20.7740   43.8060   26.9770    H   20  MOF        0.162000
   2645  _H3       46.6070   17.9740    1.1440    H   21  MOF        0.162000
   2646  _H3       46.6070   17.9740   26.9770    H   22  MOF        0.162000
   2647  _H3       46.6070   43.8060    1.1440    H   23  MOF        0.162000
   2648  _H3       46.6070   43.8060   26.9770    H   24  MOF        0.162000
   2649  _H3        5.0580    7.8580   24.6880    H   25  MOF        0.162000
   2650  _H3        5.0580    7.8580   50.5200    H   26  MOF        0.162000
   2651  _H3        5.0580   33.6900   24.6880    H   27  MOF        0.162000
   2652  _H3        5.0580   33.6900   50.5200    H   28  MOF        0.162000
   2653  _H3       30.8900    7.8580   24.6880    H   29  MOF        0.162000
   2654  _H3       30.8900    7.8580   50.5200    H   30  MOF        0.162000
   2655  _H3       30.8900   33.6900   24.6880    H   31  MOF        0.162000
   2656  _H3       30.8900   33.6900   50.5200    H   32  MOF        0.162000
   2657  _H3       20.7740    7.8580   24.6880    H   33  MOF        0.162000
   2658  _H3       20.7740    7.8580   50.5200    H   34  MOF        0.162000
   2659  _H3       20.7740   33.6900   24.6880    H   35  MOF        0.162000
   2660  _H3       20.7740   33.6900   50.5200    H   36  MOF        0.162000
   2661  _H3       46.6070    7.8580   24.6880    H   37  MOF        0.162000
   2662  _H3       46.6070    7.8580   50.5200    H   38  MOF        0.162000
   2663  _H3       46.6070   33.6900   24.6880    H   39  MOF        0.162000
   2664  _H3       46.6070   33.6900   50.5200    H   40  MOF        0.162000
   2665  _H3        5.0580   17.9740    1.1440    H   41  MOF        0.162000
   2666  _H3        5.0580   17.9740   26.9770    H   42  MOF        0.162000
   2667  _H3        5.0580   43.8060    1.1440    H   43  MOF        0.162000
   2668  _H3        5.0580   43.8060   26.9770    H   44  MOF        0.162000
   2669  _H3       30.8900   17.9740    1.1440    H   45  MOF        0.162000
   2670  _H3       30.8900   17.9740   26.9770    H   46  MOF        0.162000
   2671  _H3       30.8900   43.8060    1.1440    H   47  MOF        0.162000
   2672  _H3       30.8900   43.8060   26.9770    H   48  MOF        0.162000
   2673  _H3        5.0580   17.9740   24.6880    H   49  MOF        0.162000
   2674  _H3        5.0580   17.9740   50.5200    H   50  MOF        0.162000
   2675  _H3        5.0580   43.8060   24.6880    H   51  MOF        0.162000
   2676  _H3        5.0580   43.8060   50.5200    H   52  MOF        0.162000
   2677  _H3       30.8900   17.9740   24.6880    H   53  MOF        0.162000
   2678  _H3       30.8900   17.9740   50.5200    H   54  MOF        0.162000
   2679  _H3       30.8900   43.8060   24.6880    H   55  MOF        0.162000
   2680  _H3       30.8900   43.8060   50.5200    H   56  MOF        0.162000
   2681  _H3       20.7740    7.8580    1.1440    H   57  MOF        0.162000
   2682  _H3       20.7740    7.8580   26.9770    H   58  MOF        0.162000
   2683  _H3       20.7740   33.6900    1.1440    H   59  MOF        0.162000
   2684  _H3       20.7740   33.6900   26.9770    H   60  MOF        0.162000
   2685  _H3       46.6070    7.8580    1.1440    H   61  MOF        0.162000
   2686  _H3       46.6070    7.8580   26.9770    H   62  MOF        0.162000
   2687  _H3       46.6070   33.6900    1.1440    H   63  MOF        0.162000
   2688  _H3       46.6070   33.6900   26.9770    H   64  MOF        0.162000
   2689  _H3        1.1440    5.0580    7.8580    H   65  MOF        0.162000
   2690  _H3        1.1440    5.0580   33.6900    H   66  MOF        0.162000
   2691  _H3        1.1440   30.8900    7.8580    H   67  MOF        0.162000
   2692  _H3        1.1440   30.8900   33.6900    H   68  MOF        0.162000
   2693  _H3       26.9770    5.0580    7.8580    H   69  MOF        0.162000
   2694  _H3       26.9770    5.0580   33.6900    H   70  MOF        0.162000
   2695  _H3       26.9770   30.8900    7.8580    H   71  MOF        0.162000
   2696  _H3       26.9770   30.8900   33.6900    H   72  MOF        0.162000
   2697  _H3       24.6880   20.7740   17.9740    H   73  MOF        0.162000
   2698  _H3       24.6880   20.7740   43.8060    H   74  MOF        0.162000
   2699  _H3       24.6880   46.6070   17.9740    H   75  MOF        0.162000
   2700  _H3       24.6880   46.6070   43.8060    H   76  MOF        0.162000
   2701  _H3       50.5200   20.7740   17.9740    H   77  MOF        0.162000
   2702  _H3       50.5200   20.7740   43.8060    H   78  MOF        0.162000
   2703  _H3       50.5200   46.6070   17.9740    H   79  MOF        0.162000
   2704  _H3       50.5200   46.6070   43.8060    H   80  MOF        0.162000
   2705  _H3        1.1440   20.7740   17.9740    H   81  MOF        0.162000
   2706  _H3        1.1440   20.7740   43.8060    H   82  MOF        0.162000
   2707  _H3        1.1440   46.6070   17.9740    H   83  MOF        0.162000
   2708  _H3        1.1440   46.6070   43.8060    H   84  MOF        0.162000
   2709  _H3       26.9770   20.7740   17.9740    H   85  MOF        0.162000
   2710  _H3       26.9770   20.7740   43.8060    H   86  MOF        0.162000
   2711  _H3       26.9770   46.6070   17.9740    H   87  MOF        0.162000
   2712  _H3       26.9770   46.6070   43.8060    H   88  MOF        0.162000
   2713  _H3       24.6880    5.0580    7.8580    H   89  MOF        0.162000
   2714  _H3       24.6880    5.0580   33.6900    H   90  MOF        0.162000
   2715  _H3       24.6880   30.8900    7.8580    H   91  MOF        0.162000
   2716  _H3       24.6880   30.8900   33.6900    H   92  MOF        0.162000
   2717  _H3       50.5200    5.0580    7.8580    H   93  MOF        0.162000
   2718  _H3       50.5200    5.0580   33.6900    H   94  MOF        0.162000
   2719  _H3       50.5200   30.8900    7.8580    H   95  MOF        0.162000
   2720  _H3       50.5200   30.8900   33.6900    H   96  MOF        0.162000
   2721  _H3       24.6880   20.7740    7.8580    H   97  MOF        0.162000
   2722  _H3       24.6880   20.7740   33.6900    H   98  MOF        0.162000
   2723  _H3       24.6880   46.6070    7.8580    H   99  MOF        0.162000
   2724  _H3       24.6880   46.6070   33.6900    H  100  MOF        0.162000
   2725  _H3       50.5200   20.7740    7.8580    H  101  MOF        0.162000
   2726  _H3       50.5200   20.7740   33.6900    H  102  MOF        0.162000
   2727  _H3       50.5200   46.6070    7.8580    H  103  MOF        0.162000
   2728  _H3       50.5200   46.6070   33.6900    H  104  MOF        0.162000
   2729  _H3        1.1440    5.0580   17.9740    H  105  MOF        0.162000
   2730  _H3        1.1440    5.0580   43.8060    H  106  MOF        0.162000
   2731  _H3        1.1440   30.8900   17.9740    H  107  MOF        0.162000
   2732  _H3        1.1440   30.8900   43.8060    H  108  MOF        0.162000
   2733  _H3       26.9770    5.0580   17.9740    H  109  MOF        0.162000
   2734  _H3       26.9770    5.0580   43.8060    H  110  MOF        0.162000
   2735  _H3       26.9770   30.8900   17.9740    H  111  MOF        0.162000
   2736  _H3       26.9770   30.8900   43.8060    H  112  MOF        0.162000
   2737  _H3       24.6880    5.0580   17.9740    H  113  MOF        0.162000
   2738  _H3       24.6880    5.0580   43.8060    H  114  MOF        0.162000
   2739  _H3       24.6880   30.8900   17.9740    H  115  MOF        0.162000
   2740  _H3       24.6880   30.8900   43.8060    H  116  MOF        0.162000
   2741  _H3       50.5200    5.0580   17.9740    H  117  MOF        0.162000
   2742  _H3       50.5200    5.0580   43.8060    H  118  MOF        0.162000
   2743  _H3       50.5200   30.8900   17.9740    H  119  MOF        0.162000
   2744  _H3       50.5200   30.8900   43.8060    H  120  MOF        0.162000
   2745  _H3        1.1440   20.7740    7.8580    H  121  MOF        0.162000
   2746  _H3        1.1440   20.7740   33.6900    H  122  MOF        0.162000
   2747  _H3        1.1440   46.6070    7.8580    H  123  MOF        0.162000
   2748  _H3        1.1440   46.6070   33.6900    H  124  MOF        0.162000
   2749  _H3       26.9770   20.7740    7.8580    H  125  MOF        0.162000
   2750  _H3       26.9770   20.7740   33.6900    H  126  MOF        0.162000
   2751  _H3       26.9770   46.6070    7.8580    H  127  MOF        0.162000
   2752  _H3       26.9770   46.6070   33.6900    H  128  MOF        0.162000
   2753  _H3        7.8580    1.1440    5.0580    H  129  MOF        0.162000
   2754  _H3        7.8580    1.1440   30.8900    H  130  MOF        0.162000
   2755  _H3        7.8580   26.9770    5.0580    H  131  MOF        0.162000
   2756  _H3        7.8580   26.9770   30.8900    H  132  MOF        0.162000
   2757  _H3       33.6900    1.1440    5.0580    H  133  MOF        0.162000
   2758  _H3       33.6900    1.1440   30.8900    H  134  MOF        0.162000
   2759  _H3       33.6900   26.9770    5.0580    H  135  MOF        0.162000
   2760  _H3       33.6900   26.9770   30.8900    H  136  MOF        0.162000
   2761  _H3       17.9740   24.6880   20.7740    H  137  MOF        0.162000
   2762  _H3       17.9740   24.6880   46.6070    H  138  MOF        0.162000
   2763  _H3       17.9740   50.5200   20.7740    H  139  MOF        0.162000
   2764  _H3       17.9740   50.5200   46.6070    H  140  MOF        0.162000
   2765  _H3       43.8060   24.6880   20.7740    H  141  MOF        0.162000
   2766  _H3       43.8060   24.6880   46.6070    H  142  MOF        0.162000
   2767  _H3       43.8060   50.5200   20.7740    H  143  MOF        0.162000
   2768  _H3       43.8060   50.5200   46.6070    H  144  MOF        0.162000
   2769  _H3       17.9740    1.1440   20.7740    H  145  MOF        0.162000
   2770  _H3       17.9740    1.1440   46.6070    H  146  MOF        0.162000
   2771  _H3       17.9740   26.9770   20.7740    H  147  MOF        0.162000
   2772  _H3       17.9740   26.9770   46.6070    H  148  MOF        0.162000
   2773  _H3       43.8060    1.1440   20.7740    H  149  MOF        0.162000
   2774  _H3       43.8060    1.1440   46.6070    H  150  MOF        0.162000
   2775  _H3       43.8060   26.9770   20.7740    H  151  MOF        0.162000
   2776  _H3       43.8060   26.9770   46.6070    H  152  MOF        0.162000
   2777  _H3        7.8580   24.6880    5.0580    H  153  MOF        0.162000
   2778  _H3        7.8580   24.6880   30.8900    H  154  MOF        0.162000
   2779  _H3        7.8580   50.5200    5.0580    H  155  MOF        0.162000
   2780  _H3        7.8580   50.5200   30.8900    H  156  MOF        0.162000
   2781  _H3       33.6900   24.6880    5.0580    H  157  MOF        0.162000
   2782  _H3       33.6900   24.6880   30.8900    H  158  MOF        0.162000
   2783  _H3       33.6900   50.5200    5.0580    H  159  MOF        0.162000
   2784  _H3       33.6900   50.5200   30.8900    H  160  MOF        0.162000
   2785  _H3        7.8580   24.6880   20.7740    H  161  MOF        0.162000
   2786  _H3        7.8580   24.6880   46.6070    H  162  MOF        0.162000
   2787  _H3        7.8580   50.5200   20.7740    H  163  MOF        0.162000
   2788  _H3        7.8580   50.5200   46.6070    H  164  MOF        0.162000
   2789  _H3       33.6900   24.6880   20.7740    H  165  MOF        0.162000
   2790  _H3       33.6900   24.6880   46.6070    H  166  MOF        0.162000
   2791  _H3       33.6900   50.5200   20.7740    H  167  MOF        0.162000
   2792  _H3       33.6900   50.5200   46.6070    H  168  MOF        0.162000
   2793  _H3       17.9740    1.1440    5.0580    H  169  MOF        0.162000
   2794  _H3       17.9740    1.1440   30.8900    H  170  MOF        0.162000
   2795  _H3       17.9740   26.9770    5.0580    H  171  MOF        0.162000
   2796  _H3       17.9740   26.9770   30.8900    H  172  MOF        0.162000
   2797  _H3       43.8060    1.1440    5.0580    H  173  MOF        0.162000
   2798  _H3       43.8060    1.1440   30.8900    H  174  MOF        0.162000
   2799  _H3       43.8060   26.9770    5.0580    H  175  MOF        0.162000
   2800  _H3       43.8060   26.9770   30.8900    H  176  MOF        0.162000
   2801  _H3       17.9740   24.6880    5.0580    H  177  MOF        0.162000
   2802  _H3       17.9740   24.6880   30.8900    H  178  MOF        0.162000
   2803  _H3       17.9740   50.5200    5.0580    H  179  MOF        0.162000
   2804  _H3       17.9740   50.5200   30.8900    H  180  MOF        0.162000
   2805  _H3       43.8060   24.6880    5.0580    H  181  MOF        0.162000
   2806  _H3       43.8060   24.6880   30.8900    H  182  MOF        0.162000
   2807  _H3       43.8060   50.5200    5.0580    H  183  MOF        0.162000
   2808  _H3       43.8060   50.5200   30.8900    H  184  MOF        0.162000
   2809  _H3        7.8580    1.1440   20.7740    H  185  MOF        0.162000
   2810  _H3        7.8580    1.1440   46.6070    H  186  MOF        0.162000
   2811  _H3        7.8580   26.9770   20.7740    H  187  MOF        0.162000
   2812  _H3        7.8580   26.9770   46.6070    H  188  MOF        0.162000
   2813  _H3       33.6900    1.1440   20.7740    H  189  MOF        0.162000
   2814  _H3       33.6900    1.1440   46.6070    H  190  MOF        0.162000
   2815  _H3       33.6900   26.9770   20.7740    H  191  MOF        0.162000
   2816  _H3       33.6900   26.9770   46.6070    H  192  MOF        0.162000
   2817  _H3        7.8580    5.0580   24.6880    H  193  MOF        0.162000
   2818  _H3        7.8580    5.0580   50.5200    H  194  MOF        0.162000
   2819  _H3        7.8580   30.8900   24.6880    H  195  MOF        0.162000
   2820  _H3        7.8580   30.8900   50.5200    H  196  MOF        0.162000
   2821  _H3       33.6900    5.0580   24.6880    H  197  MOF        0.162000
   2822  _H3       33.6900    5.0580   50.5200    H  198  MOF        0.162000
   2823  _H3       33.6900   30.8900   24.6880    H  199  MOF        0.162000
   2824  _H3       33.6900   30.8900   50.5200    H  200  MOF        0.162000
   2825  _H3       17.9740   20.7740    1.1440    H  201  MOF        0.162000
   2826  _H3       17.9740   20.7740   26.9770    H  202  MOF        0.162000
   2827  _H3       17.9740   46.6070    1.1440    H  203  MOF        0.162000
   2828  _H3       17.9740   46.6070   26.9770    H  204  MOF        0.162000
   2829  _H3       43.8060   20.7740    1.1440    H  205  MOF        0.162000
   2830  _H3       43.8060   20.7740   26.9770    H  206  MOF        0.162000
   2831  _H3       43.8060   46.6070    1.1440    H  207  MOF        0.162000
   2832  _H3       43.8060   46.6070   26.9770    H  208  MOF        0.162000
   2833  _H3       17.9740   20.7740   24.6880    H  209  MOF        0.162000
   2834  _H3       17.9740   20.7740   50.5200    H  210  MOF        0.162000
   2835  _H3       17.9740   46.6070   24.6880    H  211  MOF        0.162000
   2836  _H3       17.9740   46.6070   50.5200    H  212  MOF        0.162000
   2837  _H3       43.8060   20.7740   24.6880    H  213  MOF        0.162000
   2838  _H3       43.8060   20.7740   50.5200    H  214  MOF        0.162000
   2839  _H3       43.8060   46.6070   24.6880    H  215  MOF        0.162000
   2840  _H3       43.8060   46.6070   50.5200    H  216  MOF        0.162000
   2841  _H3        7.8580    5.0580    1.1440    H  217  MOF        0.162000
   2842  _H3        7.8580    5.0580   26.9770    H  218  MOF        0.162000
   2843  _H3        7.8580   30.8900    1.1440    H  219  MOF        0.162000
   2844  _H3        7.8580   30.8900   26.9770    H  220  MOF        0.162000
   2845  _H3       33.6900    5.0580    1.1440    H  221  MOF        0.162000
   2846  _H3       33.6900    5.0580   26.9770    H  222  MOF        0.162000
   2847  _H3       33.6900   30.8900    1.1440    H  223  MOF        0.162000
   2848  _H3       33.6900   30.8900   26.9770    H  224  MOF        0.162000
   2849  _H3        7.8580   20.7740    1.1440    H  225  MOF        0.162000
   2850  _H3        7.8580   20.7740   26.9770    H  226  MOF        0.162000
   2851  _H3        7.8580   46.6070    1.1440    H  227  MOF        0.162000
   2852  _H3        7.8580   46.6070   26.9770    H  228  MOF        0.162000
   2853  _H3       33.6900   20.7740    1.1440    H  229  MOF        0.162000
   2854  _H3       33.6900   20.7740   26.9770    H  230  MOF        0.162000
   2855  _H3       33.6900   46.6070    1.1440    H  231  MOF        0.162000
   2856  _H3       33.6900   46.6070   26.9770    H  232  MOF        0.162000
   2857  _H3       17.9740    5.0580   24.6880    H  233  MOF        0.162000
   2858  _H3       17.9740    5.0580   50.5200    H  234  MOF        0.162000
   2859  _H3       17.9740   30.8900   24.6880    H  235  MOF        0.162000
   2860  _H3       17.9740   30.8900   50.5200    H  236  MOF        0.162000
   2861  _H3       43.8060    5.0580   24.6880    H  237  MOF        0.162000
   2862  _H3       43.8060    5.0580   50.5200    H  238  MOF        0.162000
   2863  _H3       43.8060   30.8900   24.6880    H  239  MOF        0.162000
   2864  _H3       43.8060   30.8900   50.5200    H  240  MOF        0.162000
   2865  _H3       17.9740    5.0580    1.1440    H  241  MOF        0.162000
   2866  _H3       17.9740    5.0580   26.9770    H  242  MOF        0.162000
   2867  _H3       17.9740   30.8900    1.1440    H  243  MOF        0.162000
   2868  _H3       17.9740   30.8900   26.9770    H  244  MOF        0.162000
   2869  _H3       43.8060    5.0580    1.1440    H  245  MOF        0.162000
   2870  _H3       43.8060    5.0580   26.9770    H  246  MOF        0.162000
   2871  _H3       43.8060   30.8900    1.1440    H  247  MOF        0.162000
   2872  _H3       43.8060   30.8900   26.9770    H  248  MOF        0.162000
   2873  _H3        7.8580   20.7740   24.6880    H  249  MOF        0.162000
   2874  _H3        7.8580   20.7740   50.5200    H  250  MOF        0.162000
   2875  _H3        7.8580   46.6070   24.6880    H  251  MOF        0.162000
   2876  _H3        7.8580   46.6070   50.5200    H  252  MOF        0.162000
   2877  _H3       33.6900   20.7740   24.6880    H  253  MOF        0.162000
   2878  _H3       33.6900   20.7740   50.5200    H  254  MOF        0.162000
   2879  _H3       33.6900   46.6070   24.6880    H  255  MOF        0.162000
   2880  _H3       33.6900   46.6070   50.5200    H  256  MOF        0.162000
   2881  _H3        5.0580    1.1440   17.9740    H  257  MOF        0.162000
   2882  _H3        5.0580    1.1440   43.8060    H  258  MOF        0.162000
   2883  _H3        5.0580   26.9770   17.9740    H  259  MOF        0.162000
   2884  _H3        5.0580   26.9770   43.8060    H  260  MOF        0.162000
   2885  _H3       30.8900    1.1440   17.9740    H  261  MOF        0.162000
   2886  _H3       30.8900    1.1440   43.8060    H  262  MOF        0.162000
   2887  _H3       30.8900   26.9770   17.9740    H  263  MOF        0.162000
   2888  _H3       30.8900   26.9770   43.8060    H  264  MOF        0.162000
   2889  _H3       20.7740   24.6880    7.8580    H  265  MOF        0.162000
   2890  _H3       20.7740   24.6880   33.6900    H  266  MOF        0.162000
   2891  _H3       20.7740   50.5200    7.8580    H  267  MOF        0.162000
   2892  _H3       20.7740   50.5200   33.6900    H  268  MOF        0.162000
   2893  _H3       46.6070   24.6880    7.8580    H  269  MOF        0.162000
   2894  _H3       46.6070   24.6880   33.6900    H  270  MOF        0.162000
   2895  _H3       46.6070   50.5200    7.8580    H  271  MOF        0.162000
   2896  _H3       46.6070   50.5200   33.6900    H  272  MOF        0.162000
   2897  _H3       20.7740    1.1440    7.8580    H  273  MOF        0.162000
   2898  _H3       20.7740    1.1440   33.6900    H  274  MOF        0.162000
   2899  _H3       20.7740   26.9770    7.8580    H  275  MOF        0.162000
   2900  _H3       20.7740   26.9770   33.6900    H  276  MOF        0.162000
   2901  _H3       46.6070    1.1440    7.8580    H  277  MOF        0.162000
   2902  _H3       46.6070    1.1440   33.6900    H  278  MOF        0.162000
   2903  _H3       46.6070   26.9770    7.8580    H  279  MOF        0.162000
   2904  _H3       46.6070   26.9770   33.6900    H  280  MOF        0.162000
   2905  _H3        5.0580   24.6880   17.9740    H  281  MOF        0.162000
   2906  _H3        5.0580   24.6880   43.8060    H  282  MOF        0.162000
   2907  _H3        5.0580   50.5200   17.9740    H  283  MOF        0.162000
   2908  _H3        5.0580   50.5200   43.8060    H  284  MOF        0.162000
   2909  _H3       30.8900   24.6880   17.9740    H  285  MOF        0.162000
   2910  _H3       30.8900   24.6880   43.8060    H  286  MOF        0.162000
   2911  _H3       30.8900   50.5200   17.9740    H  287  MOF        0.162000
   2912  _H3       30.8900   50.5200   43.8060    H  288  MOF        0.162000
   2913  _H3       20.7740   24.6880   17.9740    H  289  MOF        0.162000
   2914  _H3       20.7740   24.6880   43.8060    H  290  MOF        0.162000
   2915  _H3       20.7740   50.5200   17.9740    H  291  MOF        0.162000
   2916  _H3       20.7740   50.5200   43.8060    H  292  MOF        0.162000
   2917  _H3       46.6070   24.6880   17.9740    H  293  MOF        0.162000
   2918  _H3       46.6070   24.6880   43.8060    H  294  MOF        0.162000
   2919  _H3       46.6070   50.5200   17.9740    H  295  MOF        0.162000
   2920  _H3       46.6070   50.5200   43.8060    H  296  MOF        0.162000
   2921  _H3        5.0580    1.1440    7.8580    H  297  MOF        0.162000
   2922  _H3        5.0580    1.1440   33.6900    H  298  MOF        0.162000
   2923  _H3        5.0580   26.9770    7.8580    H  299  MOF        0.162000
   2924  _H3        5.0580   26.9770   33.6900    H  300  MOF        0.162000
   2925  _H3       30.8900    1.1440    7.8580    H  301  MOF        0.162000
   2926  _H3       30.8900    1.1440   33.6900    H  302  MOF        0.162000
   2927  _H3       30.8900   26.9770    7.8580    H  303  MOF        0.162000
   2928  _H3       30.8900   26.9770   33.6900    H  304  MOF        0.162000
   2929  _H3        5.0580   24.6880    7.8580    H  305  MOF        0.162000
   2930  _H3        5.0580   24.6880   33.6900    H  306  MOF        0.162000
   2931  _H3        5.0580   50.5200    7.8580    H  307  MOF        0.162000
   2932  _H3        5.0580   50.5200   33.6900    H  308  MOF        0.162000
   2933  _H3       30.8900   24.6880    7.8580    H  309  MOF        0.162000
   2934  _H3       30.8900   24.6880   33.6900    H  310  MOF        0.162000
   2935  _H3       30.8900   50.5200    7.8580    H  311  MOF        0.162000
   2936  _H3       30.8900   50.5200   33.6900    H  312  MOF        0.162000
   2937  _H3       20.7740    1.1440   17.9740    H  313  MOF        0.162000
   2938  _H3       20.7740    1.1440   43.8060    H  314  MOF        0.162000
   2939  _H3       20.7740   26.9770   17.9740    H  315  MOF        0.162000
   2940  _H3       20.7740   26.9770   43.8060    H  316  MOF        0.162000
   2941  _H3       46.6070    1.1440   17.9740    H  317  MOF        0.162000
   2942  _H3       46.6070    1.1440   43.8060    H  318  MOF        0.162000
   2943  _H3       46.6070   26.9770   17.9740    H  319  MOF        0.162000
   2944  _H3       46.6070   26.9770   43.8060    H  320  MOF        0.162000
   2945  _H3        1.1440    7.8580   20.7740    H  321  MOF        0.162000
   2946  _H3        1.1440    7.8580   46.6070    H  322  MOF        0.162000
   2947  _H3        1.1440   33.6900   20.7740    H  323  MOF        0.162000
   2948  _H3        1.1440   33.6900   46.6070    H  324  MOF        0.162000
   2949  _H3       26.9770    7.8580   20.7740    H  325  MOF        0.162000
   2950  _H3       26.9770    7.8580   46.6070    H  326  MOF        0.162000
   2951  _H3       26.9770   33.6900   20.7740    H  327  MOF        0.162000
   2952  _H3       26.9770   33.6900   46.6070    H  328  MOF        0.162000
   2953  _H3       24.6880   17.9740    5.0580    H  329  MOF        0.162000
   2954  _H3       24.6880   17.9740   30.8900    H  330  MOF        0.162000
   2955  _H3       24.6880   43.8060    5.0580    H  331  MOF        0.162000
   2956  _H3       24.6880   43.8060   30.8900    H  332  MOF        0.162000
   2957  _H3       50.5200   17.9740    5.0580    H  333  MOF        0.162000
   2958  _H3       50.5200   17.9740   30.8900    H  334  MOF        0.162000
   2959  _H3       50.5200   43.8060    5.0580    H  335  MOF        0.162000
   2960  _H3       50.5200   43.8060   30.8900    H  336  MOF        0.162000
   2961  _H3        1.1440   17.9740    5.0580    H  337  MOF        0.162000
   2962  _H3        1.1440   17.9740   30.8900    H  338  MOF        0.162000
   2963  _H3        1.1440   43.8060    5.0580    H  339  MOF        0.162000
   2964  _H3        1.1440   43.8060   30.8900    H  340  MOF        0.162000
   2965  _H3       26.9770   17.9740    5.0580    H  341  MOF        0.162000
   2966  _H3       26.9770   17.9740   30.8900    H  342  MOF        0.162000
   2967  _H3       26.9770   43.8060    5.0580    H  343  MOF        0.162000
   2968  _H3       26.9770   43.8060   30.8900    H  344  MOF        0.162000
   2969  _H3       24.6880    7.8580   20.7740    H  345  MOF        0.162000
   2970  _H3       24.6880    7.8580   46.6070    H  346  MOF        0.162000
   2971  _H3       24.6880   33.6900   20.7740    H  347  MOF        0.162000
   2972  _H3       24.6880   33.6900   46.6070    H  348  MOF        0.162000
   2973  _H3       50.5200    7.8580   20.7740    H  349  MOF        0.162000
   2974  _H3       50.5200    7.8580   46.6070    H  350  MOF        0.162000
   2975  _H3       50.5200   33.6900   20.7740    H  351  MOF        0.162000
   2976  _H3       50.5200   33.6900   46.6070    H  352  MOF        0.162000
   2977  _H3       24.6880    7.8580    5.0580    H  353  MOF        0.162000
   2978  _H3       24.6880    7.8580   30.8900    H  354  MOF        0.162000
   2979  _H3       24.6880   33.6900    5.0580    H  355  MOF        0.162000
   2980  _H3       24.6880   33.6900   30.8900    H  356  MOF        0.162000
   2981  _H3       50.5200    7.8580    5.0580    H  357  MOF        0.162000
   2982  _H3       50.5200    7.8580   30.8900    H  358  MOF        0.162000
   2983  _H3       50.5200   33.6900    5.0580    H  359  MOF        0.162000
   2984  _H3       50.5200   33.6900   30.8900    H  360  MOF        0.162000
   2985  _H3        1.1440   17.9740   20.7740    H  361  MOF        0.162000
   2986  _H3        1.1440   17.9740   46.6070    H  362  MOF        0.162000
   2987  _H3        1.1440   43.8060   20.7740    H  363  MOF        0.162000
   2988  _H3        1.1440   43.8060   46.6070    H  364  MOF        0.162000
   2989  _H3       26.9770   17.9740   20.7740    H  365  MOF        0.162000
   2990  _H3       26.9770   17.9740   46.6070    H  366  MOF        0.162000
   2991  _H3       26.9770   43.8060   20.7740    H  367  MOF        0.162000
   2992  _H3       26.9770   43.8060   46.6070    H  368  MOF        0.162000
   2993  _H3       24.6880   17.9740   20.7740    H  369  MOF        0.162000
   2994  _H3       24.6880   17.9740   46.6070    H  370  MOF        0.162000
   2995  _H3       24.6880   43.8060   20.7740    H  371  MOF        0.162000
   2996  _H3       24.6880   43.8060   46.6070    H  372  MOF        0.162000
   2997  _H3       50.5200   17.9740   20.7740    H  373  MOF        0.162000
   2998  _H3       50.5200   17.9740   46.6070    H  374  MOF        0.162000
   2999  _H3       50.5200   43.8060   20.7740    H  375  MOF        0.162000
   3000  _H3       50.5200   43.8060   46.6070    H  376  MOF        0.162000
   3001  _H3        1.1440    7.8580    5.0580    H  377  MOF        0.162000
   3002  _H3        1.1440    7.8580   30.8900    H  378  MOF        0.162000
   3003  _H3        1.1440   33.6900    5.0580    H  379  MOF        0.162000
   3004  _H3        1.1440   33.6900   30.8900    H  380  MOF        0.162000
   3005  _H3       26.9770    7.8580    5.0580    H  381  MOF        0.162000
   3006  _H3       26.9770    7.8580   30.8900    H  382  MOF        0.162000
   3007  _H3       26.9770   33.6900    5.0580    H  383  MOF        0.162000
   3008  _H3       26.9770   33.6900   30.8900    H  384  MOF        0.162000
   3009  _H3        5.0580   20.7740   14.0610    H  385  MOF        0.162000
   3010  _H3        5.0580   20.7740   39.8930    H  386  MOF        0.162000
   3011  _H3        5.0580   46.6070   14.0610    H  387  MOF        0.162000
   3012  _H3        5.0580   46.6070   39.8930    H  388  MOF        0.162000
   3013  _H3       30.8900   20.7740   14.0610    H  389  MOF        0.162000
   3014  _H3       30.8900   20.7740   39.8930    H  390  MOF        0.162000
   3015  _H3       30.8900   46.6070   14.0610    H  391  MOF        0.162000
   3016  _H3       30.8900   46.6070   39.8930    H  392  MOF        0.162000
   3017  _H3       20.7740    5.0580   11.7720    H  393  MOF        0.162000
   3018  _H3       20.7740    5.0580   37.6040    H  394  MOF        0.162000
   3019  _H3       20.7740   30.8900   11.7720    H  395  MOF        0.162000
   3020  _H3       20.7740   30.8900   37.6040    H  396  MOF        0.162000
   3021  _H3       46.6070    5.0580   11.7720    H  397  MOF        0.162000
   3022  _H3       46.6070    5.0580   37.6040    H  398  MOF        0.162000
   3023  _H3       46.6070   30.8900   11.7720    H  399  MOF        0.162000
   3024  _H3       46.6070   30.8900   37.6040    H  400  MOF        0.162000
   3025  _H3       20.7740    5.0580   14.0610    H  401  MOF        0.162000
   3026  _H3       20.7740    5.0580   39.8930    H  402  MOF        0.162000
   3027  _H3       20.7740   30.8900   14.0610    H  403  MOF        0.162000
   3028  _H3       20.7740   30.8900   39.8930    H  404  MOF        0.162000
   3029  _H3       46.6070    5.0580   14.0610    H  405  MOF        0.162000
   3030  _H3       46.6070    5.0580   39.8930    H  406  MOF        0.162000
   3031  _H3       46.6070   30.8900   14.0610    H  407  MOF        0.162000
   3032  _H3       46.6070   30.8900   39.8930    H  408  MOF        0.162000
   3033  _H3        5.0580   20.7740   11.7720    H  409  MOF        0.162000
   3034  _H3        5.0580   20.7740   37.6040    H  410  MOF        0.162000
   3035  _H3        5.0580   46.6070   11.7720    H  411  MOF        0.162000
   3036  _H3        5.0580   46.6070   37.6040    H  412  MOF        0.162000
   3037  _H3       30.8900   20.7740   11.7720    H  413  MOF        0.162000
   3038  _H3       30.8900   20.7740   37.6040    H  414  MOF        0.162000
   3039  _H3       30.8900   46.6070   11.7720    H  415  MOF        0.162000
   3040  _H3       30.8900   46.6070   37.6040    H  416  MOF        0.162000
   3041  _H3       20.7740   20.7740   11.7720    H  417  MOF        0.162000
   3042  _H3       20.7740   20.7740   37.6040    H  418  MOF        0.162000
   3043  _H3       20.7740   46.6070   11.7720    H  419  MOF        0.162000
   3044  _H3       20.7740   46.6070   37.6040    H  420  MOF        0.162000
   3045  _H3       46.6070   20.7740   11.7720    H  421  MOF        0.162000
   3046  _H3       46.6070   20.7740   37.6040    H  422  MOF        0.162000
   3047  _H3       46.6070   46.6070   11.7720    H  423  MOF        0.162000
   3048  _H3       46.6070   46.6070   37.6040    H  424  MOF        0.162000
   3049  _H3        5.0580    5.0580   14.0610    H  425  MOF        0.162000
   3050  _H3        5.0580    5.0580   39.8930    H  426  MOF        0.162000
   3051  _H3        5.0580   30.8900   14.0610    H  427  MOF        0.162000
   3052  _H3        5.0580   30.8900   39.8930    H  428  MOF        0.162000
   3053  _H3       30.8900    5.0580   14.0610    H  429  MOF        0.162000
   3054  _H3       30.8900    5.0580   39.8930    H  430  MOF        0.162000
   3055  _H3       30.8900   30.8900   14.0610    H  431  MOF        0.162000
   3056  _H3       30.8900   30.8900   39.8930    H  432  MOF        0.162000
   3057  _H3        5.0580    5.0580   11.7720    H  433  MOF        0.162000
   3058  _H3        5.0580    5.0580   37.6040    H  434  MOF        0.162000
   3059  _H3        5.0580   30.8900   11.7720    H  435  MOF        0.162000
   3060  _H3        5.0580   30.8900   37.6040    H  436  MOF        0.162000
   3061  _H3       30.8900    5.0580   11.7720    H  437  MOF        0.162000
   3062  _H3       30.8900    5.0580   37.6040    H  438  MOF        0.162000
   3063  _H3       30.8900   30.8900   11.7720    H  439  MOF        0.162000
   3064  _H3       30.8900   30.8900   37.6040    H  440  MOF        0.162000
   3065  _H3       20.7740   20.7740   14.0610    H  441  MOF        0.162000
   3066  _H3       20.7740   20.7740   39.8930    H  442  MOF        0.162000
   3067  _H3       20.7740   46.6070   14.0610    H  443  MOF        0.162000
   3068  _H3       20.7740   46.6070   39.8930    H  444  MOF        0.162000
   3069  _H3       46.6070   20.7740   14.0610    H  445  MOF        0.162000
   3070  _H3       46.6070   20.7740   39.8930    H  446  MOF        0.162000
   3071  _H3       46.6070   46.6070   14.0610    H  447  MOF        0.162000
   3072  _H3       46.6070   46.6070   39.8930    H  448  MOF        0.162000
   3073  _H3        7.8580   14.0610   17.9740    H  449  MOF        0.162000
   3074  _H3        7.8580   14.0610   43.8060    H  450  MOF        0.162000
   3075  _H3        7.8580   39.8930   17.9740    H  451  MOF        0.162000
   3076  _H3        7.8580   39.8930   43.8060    H  452  MOF        0.162000
   3077  _H3       33.6900   14.0610   17.9740    H  453  MOF        0.162000
   3078  _H3       33.6900   14.0610   43.8060    H  454  MOF        0.162000
   3079  _H3       33.6900   39.8930   17.9740    H  455  MOF        0.162000
   3080  _H3       33.6900   39.8930   43.8060    H  456  MOF        0.162000
   3081  _H3       17.9740   11.7720    7.8580    H  457  MOF        0.162000
   3082  _H3       17.9740   11.7720   33.6900    H  458  MOF        0.162000
   3083  _H3       17.9740   37.6040    7.8580    H  459  MOF        0.162000
   3084  _H3       17.9740   37.6040   33.6900    H  460  MOF        0.162000
   3085  _H3       43.8060   11.7720    7.8580    H  461  MOF        0.162000
   3086  _H3       43.8060   11.7720   33.6900    H  462  MOF        0.162000
   3087  _H3       43.8060   37.6040    7.8580    H  463  MOF        0.162000
   3088  _H3       43.8060   37.6040   33.6900    H  464  MOF        0.162000
   3089  _H3       17.9740   14.0610    7.8580    H  465  MOF        0.162000
   3090  _H3       17.9740   14.0610   33.6900    H  466  MOF        0.162000
   3091  _H3       17.9740   39.8930    7.8580    H  467  MOF        0.162000
   3092  _H3       17.9740   39.8930   33.6900    H  468  MOF        0.162000
   3093  _H3       43.8060   14.0610    7.8580    H  469  MOF        0.162000
   3094  _H3       43.8060   14.0610   33.6900    H  470  MOF        0.162000
   3095  _H3       43.8060   39.8930    7.8580    H  471  MOF        0.162000
   3096  _H3       43.8060   39.8930   33.6900    H  472  MOF        0.162000
   3097  _H3        7.8580   11.7720   17.9740    H  473  MOF        0.162000
   3098  _H3        7.8580   11.7720   43.8060    H  474  MOF        0.162000
   3099  _H3        7.8580   37.6040   17.9740    H  475  MOF        0.162000
   3100  _H3        7.8580   37.6040   43.8060    H  476  MOF        0.162000
   3101  _H3       33.6900   11.7720   17.9740    H  477  MOF        0.162000
   3102  _H3       33.6900   11.7720   43.8060    H  478  MOF        0.162000
   3103  _H3       33.6900   37.6040   17.9740    H  479  MOF        0.162000
   3104  _H3       33.6900   37.6040   43.8060    H  480  MOF        0.162000
   3105  _H3        7.8580   11.7720    7.8580    H  481  MOF        0.162000
   3106  _H3        7.8580   11.7720   33.6900    H  482  MOF        0.162000
   3107  _H3        7.8580   37.6040    7.8580    H  483  MOF        0.162000
   3108  _H3        7.8580   37.6040   33.6900    H  484  MOF        0.162000
   3109  _H3       33.6900   11.7720    7.8580    H  485  MOF        0.162000
   3110  _H3       33.6900   11.7720   33.6900    H  486  MOF        0.162000
   3111  _H3       33.6900   37.6040    7.8580    H  487  MOF        0.162000
   3112  _H3       33.6900   37.6040   33.6900    H  488  MOF        0.162000
   3113  _H3       17.9740   14.0610   17.9740    H  489  MOF        0.162000
   3114  _H3       17.9740   14.0610   43.8060    H  490  MOF        0.162000
   3115  _H3       17.9740   39.8930   17.9740    H  491  MOF        0.162000
   3116  _H3       17.9740   39.8930   43.8060    H  492  MOF        0.162000
   3117  _H3       43.8060   14.0610   17.9740    H  493  MOF        0.162000
   3118  _H3       43.8060   14.0610   43.8060    H  494  MOF        0.162000
   3119  _H3       43.8060   39.8930   17.9740    H  495  MOF        0.162000
   3120  _H3       43.8060   39.8930   43.8060    H  496  MOF        0.162000
   3121  _H3       17.9740   11.7720   17.9740    H  497  MOF        0.162000
   3122  _H3       17.9740   11.7720   43.8060    H  498  MOF        0.162000
   3123  _H3       17.9740   37.6040   17.9740    H  499  MOF        0.162000
   3124  _H3       17.9740   37.6040   43.8060    H  500  MOF        0.162000
   3125  _H3       43.8060   11.7720   17.9740    H  501  MOF        0.162000
   3126  _H3       43.8060   11.7720   43.8060    H  502  MOF        0.162000
   3127  _H3       43.8060   37.6040   17.9740    H  503  MOF        0.162000
   3128  _H3       43.8060   37.6040   43.8060    H  504  MOF        0.162000
   3129  _H3        7.8580   14.0610    7.8580    H  505  MOF        0.162000
   3130  _H3        7.8580   14.0610   33.6900    H  506  MOF        0.162000
   3131  _H3        7.8580   39.8930    7.8580    H  507  MOF        0.162000
   3132  _H3        7.8580   39.8930   33.6900    H  508  MOF        0.162000
   3133  _H3       33.6900   14.0610    7.8580    H  509  MOF        0.162000
   3134  _H3       33.6900   14.0610   33.6900    H  510  MOF        0.162000
   3135  _H3       33.6900   39.8930    7.8580    H  511  MOF        0.162000
   3136  _H3       33.6900   39.8930   33.6900    H  512  MOF        0.162000
   3137  _H3        7.8580   17.9740   11.7720    H  513  MOF        0.162000
   3138  _H3        7.8580   17.9740   37.6040    H  514  MOF        0.162000
   3139  _H3        7.8580   43.8060   11.7720    H  515  MOF        0.162000
   3140  _H3        7.8580   43.8060   37.6040    H  516  MOF        0.162000
   3141  _H3       33.6900   17.9740   11.7720    H  517  MOF        0.162000
   3142  _H3       33.6900   17.9740   37.6040    H  518  MOF        0.162000
   3143  _H3       33.6900   43.8060   11.7720    H  519  MOF        0.162000
   3144  _H3       33.6900   43.8060   37.6040    H  520  MOF        0.162000
   3145  _H3       17.9740    7.8580   14.0610    H  521  MOF        0.162000
   3146  _H3       17.9740    7.8580   39.8930    H  522  MOF        0.162000
   3147  _H3       17.9740   33.6900   14.0610    H  523  MOF        0.162000
   3148  _H3       17.9740   33.6900   39.8930    H  524  MOF        0.162000
   3149  _H3       43.8060    7.8580   14.0610    H  525  MOF        0.162000
   3150  _H3       43.8060    7.8580   39.8930    H  526  MOF        0.162000
   3151  _H3       43.8060   33.6900   14.0610    H  527  MOF        0.162000
   3152  _H3       43.8060   33.6900   39.8930    H  528  MOF        0.162000
   3153  _H3       17.9740    7.8580   11.7720    H  529  MOF        0.162000
   3154  _H3       17.9740    7.8580   37.6040    H  530  MOF        0.162000
   3155  _H3       17.9740   33.6900   11.7720    H  531  MOF        0.162000
   3156  _H3       17.9740   33.6900   37.6040    H  532  MOF        0.162000
   3157  _H3       43.8060    7.8580   11.7720    H  533  MOF        0.162000
   3158  _H3       43.8060    7.8580   37.6040    H  534  MOF        0.162000
   3159  _H3       43.8060   33.6900   11.7720    H  535  MOF        0.162000
   3160  _H3       43.8060   33.6900   37.6040    H  536  MOF        0.162000
   3161  _H3        7.8580   17.9740   14.0610    H  537  MOF        0.162000
   3162  _H3        7.8580   17.9740   39.8930    H  538  MOF        0.162000
   3163  _H3        7.8580   43.8060   14.0610    H  539  MOF        0.162000
   3164  _H3        7.8580   43.8060   39.8930    H  540  MOF        0.162000
   3165  _H3       33.6900   17.9740   14.0610    H  541  MOF        0.162000
   3166  _H3       33.6900   17.9740   39.8930    H  542  MOF        0.162000
   3167  _H3       33.6900   43.8060   14.0610    H  543  MOF        0.162000
   3168  _H3       33.6900   43.8060   39.8930    H  544  MOF        0.162000
   3169  _H3        7.8580    7.8580   14.0610    H  545  MOF        0.162000
   3170  _H3        7.8580    7.8580   39.8930    H  546  MOF        0.162000
   3171  _H3        7.8580   33.6900   14.0610    H  547  MOF        0.162000
   3172  _H3        7.8580   33.6900   39.8930    H  548  MOF        0.162000
   3173  _H3       33.6900    7.8580   14.0610    H  549  MOF        0.162000
   3174  _H3       33.6900    7.8580   39.8930    H  550  MOF        0.162000
   3175  _H3       33.6900   33.6900   14.0610    H  551  MOF        0.162000
   3176  _H3       33.6900   33.6900   39.8930    H  552  MOF        0.162000
   3177  _H3       17.9740   17.9740   11.7720    H  553  MOF        0.162000
   3178  _H3       17.9740   17.9740   37.6040    H  554  MOF        0.162000
   3179  _H3       17.9740   43.8060   11.7720    H  555  MOF        0.162000
   3180  _H3       17.9740   43.8060   37.6040    H  556  MOF        0.162000
   3181  _H3       43.8060   17.9740   11.7720    H  557  MOF        0.162000
   3182  _H3       43.8060   17.9740   37.6040    H  558  MOF        0.162000
   3183  _H3       43.8060   43.8060   11.7720    H  559  MOF        0.162000
   3184  _H3       43.8060   43.8060   37.6040    H  560  MOF        0.162000
   3185  _H3       17.9740   17.9740   14.0610    H  561  MOF        0.162000
   3186  _H3       17.9740   17.9740   39.8930    H  562  MOF        0.162000
   3187  _H3       17.9740   43.8060   14.0610    H  563  MOF        0.162000
   3188  _H3       17.9740   43.8060   39.8930    H  564  MOF        0.162000
   3189  _H3       43.8060   17.9740   14.0610    H  565  MOF        0.162000
   3190  _H3       43.8060   17.9740   39.8930    H  566  MOF        0.162000
   3191  _H3       43.8060   43.8060   14.0610    H  567  MOF        0.162000
   3192  _H3       43.8060   43.8060   39.8930    H  568  MOF        0.162000
   3193  _H3        7.8580    7.8580   11.7720    H  569  MOF        0.162000
   3194  _H3        7.8580    7.8580   37.6040    H  570  MOF        0.162000
   3195  _H3        7.8580   33.6900   11.7720    H  571  MOF        0.162000
   3196  _H3        7.8580   33.6900   37.6040    H  572  MOF        0.162000
   3197  _H3       33.6900    7.8580   11.7720    H  573  MOF        0.162000
   3198  _H3       33.6900    7.8580   37.6040    H  574  MOF        0.162000
   3199  _H3       33.6900   33.6900   11.7720    H  575  MOF        0.162000
   3200  _H3       33.6900   33.6900   37.6040    H  576  MOF        0.162000
   3201  _H3        5.0580   14.0610    5.0580    H  577  MOF        0.162000
   3202  _H3        5.0580   14.0610   30.8900    H  578  MOF        0.162000
   3203  _H3        5.0580   39.8930    5.0580    H  579  MOF        0.162000
   3204  _H3        5.0580   39.8930   30.8900    H  580  MOF        0.162000
   3205  _H3       30.8900   14.0610    5.0580    H  581  MOF        0.162000
   3206  _H3       30.8900   14.0610   30.8900    H  582  MOF        0.162000
   3207  _H3       30.8900   39.8930    5.0580    H  583  MOF        0.162000
   3208  _H3       30.8900   39.8930   30.8900    H  584  MOF        0.162000
   3209  _H3       20.7740   11.7720   20.7740    H  585  MOF        0.162000
   3210  _H3       20.7740   11.7720   46.6070    H  586  MOF        0.162000
   3211  _H3       20.7740   37.6040   20.7740    H  587  MOF        0.162000
   3212  _H3       20.7740   37.6040   46.6070    H  588  MOF        0.162000
   3213  _H3       46.6070   11.7720   20.7740    H  589  MOF        0.162000
   3214  _H3       46.6070   11.7720   46.6070    H  590  MOF        0.162000
   3215  _H3       46.6070   37.6040   20.7740    H  591  MOF        0.162000
   3216  _H3       46.6070   37.6040   46.6070    H  592  MOF        0.162000
   3217  _H3       20.7740   14.0610   20.7740    H  593  MOF        0.162000
   3218  _H3       20.7740   14.0610   46.6070    H  594  MOF        0.162000
   3219  _H3       20.7740   39.8930   20.7740    H  595  MOF        0.162000
   3220  _H3       20.7740   39.8930   46.6070    H  596  MOF        0.162000
   3221  _H3       46.6070   14.0610   20.7740    H  597  MOF        0.162000
   3222  _H3       46.6070   14.0610   46.6070    H  598  MOF        0.162000
   3223  _H3       46.6070   39.8930   20.7740    H  599  MOF        0.162000
   3224  _H3       46.6070   39.8930   46.6070    H  600  MOF        0.162000
   3225  _H3        5.0580   11.7720    5.0580    H  601  MOF        0.162000
   3226  _H3        5.0580   11.7720   30.8900    H  602  MOF        0.162000
   3227  _H3        5.0580   37.6040    5.0580    H  603  MOF        0.162000
   3228  _H3        5.0580   37.6040   30.8900    H  604  MOF        0.162000
   3229  _H3       30.8900   11.7720    5.0580    H  605  MOF        0.162000
   3230  _H3       30.8900   11.7720   30.8900    H  606  MOF        0.162000
   3231  _H3       30.8900   37.6040    5.0580    H  607  MOF        0.162000
   3232  _H3       30.8900   37.6040   30.8900    H  608  MOF        0.162000
   3233  _H3       20.7740   11.7720    5.0580    H  609  MOF        0.162000
   3234  _H3       20.7740   11.7720   30.8900    H  610  MOF        0.162000
   3235  _H3       20.7740   37.6040    5.0580    H  611  MOF        0.162000
   3236  _H3       20.7740   37.6040   30.8900    H  612  MOF        0.162000
   3237  _H3       46.6070   11.7720    5.0580    H  613  MOF        0.162000
   3238  _H3       46.6070   11.7720   30.8900    H  614  MOF        0.162000
   3239  _H3       46.6070   37.6040    5.0580    H  615  MOF        0.162000
   3240  _H3       46.6070   37.6040   30.8900    H  616  MOF        0.162000
   3241  _H3        5.0580   14.0610   20.7740    H  617  MOF        0.162000
   3242  _H3        5.0580   14.0610   46.6070    H  618  MOF        0.162000
   3243  _H3        5.0580   39.8930   20.7740    H  619  MOF        0.162000
   3244  _H3        5.0580   39.8930   46.6070    H  620  MOF        0.162000
   3245  _H3       30.8900   14.0610   20.7740    H  621  MOF        0.162000
   3246  _H3       30.8900   14.0610   46.6070    H  622  MOF        0.162000
   3247  _H3       30.8900   39.8930   20.7740    H  623  MOF        0.162000
   3248  _H3       30.8900   39.8930   46.6070    H  624  MOF        0.162000
   3249  _H3        5.0580   11.7720   20.7740    H  625  MOF        0.162000
   3250  _H3        5.0580   11.7720   46.6070    H  626  MOF        0.162000
   3251  _H3        5.0580   37.6040   20.7740    H  627  MOF        0.162000
   3252  _H3        5.0580   37.6040   46.6070    H  628  MOF        0.162000
   3253  _H3       30.8900   11.7720   20.7740    H  629  MOF        0.162000
   3254  _H3       30.8900   11.7720   46.6070    H  630  MOF        0.162000
   3255  _H3       30.8900   37.6040   20.7740    H  631  MOF        0.162000
   3256  _H3       30.8900   37.6040   46.6070    H  632  MOF        0.162000
   3257  _H3       20.7740   14.0610    5.0580    H  633  MOF        0.162000
   3258  _H3       20.7740   14.0610   30.8900    H  634  MOF        0.162000
   3259  _H3       20.7740   39.8930    5.0580    H  635  MOF        0.162000
   3260  _H3       20.7740   39.8930   30.8900    H  636  MOF        0.162000
   3261  _H3       46.6070   14.0610    5.0580    H  637  MOF        0.162000
   3262  _H3       46.6070   14.0610   30.8900    H  638  MOF        0.162000
   3263  _H3       46.6070   39.8930    5.0580    H  639  MOF        0.162000
   3264  _H3       46.6070   39.8930   30.8900    H  640  MOF        0.162000
   3265  _H3       14.0610    5.0580   20.7740    H  641  MOF        0.162000
   3266  _H3       14.0610    5.0580   46.6070    H  642  MOF        0.162000
   3267  _H3       14.0610   30.8900   20.7740    H  643  MOF        0.162000
   3268  _H3       14.0610   30.8900   46.6070    H  644  MOF        0.162000
   3269  _H3       39.8930    5.0580   20.7740    H  645  MOF        0.162000
   3270  _H3       39.8930    5.0580   46.6070    H  646  MOF        0.162000
   3271  _H3       39.8930   30.8900   20.7740    H  647  MOF        0.162000
   3272  _H3       39.8930   30.8900   46.6070    H  648  MOF        0.162000
   3273  _H3       11.7720   20.7740    5.0580    H  649  MOF        0.162000
   3274  _H3       11.7720   20.7740   30.8900    H  650  MOF        0.162000
   3275  _H3       11.7720   46.6070    5.0580    H  651  MOF        0.162000
   3276  _H3       11.7720   46.6070   30.8900    H  652  MOF        0.162000
   3277  _H3       37.6040   20.7740    5.0580    H  653  MOF        0.162000
   3278  _H3       37.6040   20.7740   30.8900    H  654  MOF        0.162000
   3279  _H3       37.6040   46.6070    5.0580    H  655  MOF        0.162000
   3280  _H3       37.6040   46.6070   30.8900    H  656  MOF        0.162000
   3281  _H3       14.0610   20.7740    5.0580    H  657  MOF        0.162000
   3282  _H3       14.0610   20.7740   30.8900    H  658  MOF        0.162000
   3283  _H3       14.0610   46.6070    5.0580    H  659  MOF        0.162000
   3284  _H3       14.0610   46.6070   30.8900    H  660  MOF        0.162000
   3285  _H3       39.8930   20.7740    5.0580    H  661  MOF        0.162000
   3286  _H3       39.8930   20.7740   30.8900    H  662  MOF        0.162000
   3287  _H3       39.8930   46.6070    5.0580    H  663  MOF        0.162000
   3288  _H3       39.8930   46.6070   30.8900    H  664  MOF        0.162000
   3289  _H3       11.7720    5.0580   20.7740    H  665  MOF        0.162000
   3290  _H3       11.7720    5.0580   46.6070    H  666  MOF        0.162000
   3291  _H3       11.7720   30.8900   20.7740    H  667  MOF        0.162000
   3292  _H3       11.7720   30.8900   46.6070    H  668  MOF        0.162000
   3293  _H3       37.6040    5.0580   20.7740    H  669  MOF        0.162000
   3294  _H3       37.6040    5.0580   46.6070    H  670  MOF        0.162000
   3295  _H3       37.6040   30.8900   20.7740    H  671  MOF        0.162000
   3296  _H3       37.6040   30.8900   46.6070    H  672  MOF        0.162000
   3297  _H3       11.7720   20.7740   20.7740    H  673  MOF        0.162000
   3298  _H3       11.7720   20.7740   46.6070    H  674  MOF        0.162000
   3299  _H3       11.7720   46.6070   20.7740    H  675  MOF        0.162000
   3300  _H3       11.7720   46.6070   46.6070    H  676  MOF        0.162000
   3301  _H3       37.6040   20.7740   20.7740    H  677  MOF        0.162000
   3302  _H3       37.6040   20.7740   46.6070    H  678  MOF        0.162000
   3303  _H3       37.6040   46.6070   20.7740    H  679  MOF        0.162000
   3304  _H3       37.6040   46.6070   46.6070    H  680  MOF        0.162000
   3305  _H3       14.0610    5.0580    5.0580    H  681  MOF        0.162000
   3306  _H3       14.0610    5.0580   30.8900    H  682  MOF        0.162000
   3307  _H3       14.0610   30.8900    5.0580    H  683  MOF        0.162000
   3308  _H3       14.0610   30.8900   30.8900    H  684  MOF        0.162000
   3309  _H3       39.8930    5.0580    5.0580    H  685  MOF        0.162000
   3310  _H3       39.8930    5.0580   30.8900    H  686  MOF        0.162000
   3311  _H3       39.8930   30.8900    5.0580    H  687  MOF        0.162000
   3312  _H3       39.8930   30.8900   30.8900    H  688  MOF        0.162000
   3313  _H3       11.7720    5.0580    5.0580    H  689  MOF        0.162000
   3314  _H3       11.7720    5.0580   30.8900    H  690  MOF        0.162000
   3315  _H3       11.7720   30.8900    5.0580    H  691  MOF        0.162000
   3316  _H3       11.7720   30.8900   30.8900    H  692  MOF        0.162000
   3317  _H3       37.6040    5.0580    5.0580    H  693  MOF        0.162000
   3318  _H3       37.6040    5.0580   30.8900    H  694  MOF        0.162000
   3319  _H3       37.6040   30.8900    5.0580    H  695  MOF        0.162000
   3320  _H3       37.6040   30.8900   30.8900    H  696  MOF        0.162000
   3321  _H3       14.0610   20.7740   20.7740    H  697  MOF        0.162000
   3322  _H3       14.0610   20.7740   46.6070    H  698  MOF        0.162000
   3323  _H3       14.0610   46.6070   20.7740    H  699  MOF        0.162000
   3324  _H3       14.0610   46.6070   46.6070    H  700  MOF        0.162000
   3325  _H3       39.8930   20.7740   20.7740    H  701  MOF        0.162000
   3326  _H3       39.8930   20.7740   46.6070    H  702  MOF        0.162000
   3327  _H3       39.8930   46.6070   20.7740    H  703  MOF        0.162000
   3328  _H3       39.8930   46.6070   46.6070    H  704  MOF        0.162000
   3329  _H3       14.0610    7.8580    7.8580    H  705  MOF        0.162000
   3330  _H3       14.0610    7.8580   33.6900    H  706  MOF        0.162000
   3331  _H3       14.0610   33.6900    7.8580    H  707  MOF        0.162000
   3332  _H3       14.0610   33.6900   33.6900    H  708  MOF        0.162000
   3333  _H3       39.8930    7.8580    7.8580    H  709  MOF        0.162000
   3334  _H3       39.8930    7.8580   33.6900    H  710  MOF        0.162000
   3335  _H3       39.8930   33.6900    7.8580    H  711  MOF        0.162000
   3336  _H3       39.8930   33.6900   33.6900    H  712  MOF        0.162000
   3337  _H3       11.7720   17.9740   17.9740    H  713  MOF        0.162000
   3338  _H3       11.7720   17.9740   43.8060    H  714  MOF        0.162000
   3339  _H3       11.7720   43.8060   17.9740    H  715  MOF        0.162000
   3340  _H3       11.7720   43.8060   43.8060    H  716  MOF        0.162000
   3341  _H3       37.6040   17.9740   17.9740    H  717  MOF        0.162000
   3342  _H3       37.6040   17.9740   43.8060    H  718  MOF        0.162000
   3343  _H3       37.6040   43.8060   17.9740    H  719  MOF        0.162000
   3344  _H3       37.6040   43.8060   43.8060    H  720  MOF        0.162000
   3345  _H3       14.0610   17.9740   17.9740    H  721  MOF        0.162000
   3346  _H3       14.0610   17.9740   43.8060    H  722  MOF        0.162000
   3347  _H3       14.0610   43.8060   17.9740    H  723  MOF        0.162000
   3348  _H3       14.0610   43.8060   43.8060    H  724  MOF        0.162000
   3349  _H3       39.8930   17.9740   17.9740    H  725  MOF        0.162000
   3350  _H3       39.8930   17.9740   43.8060    H  726  MOF        0.162000
   3351  _H3       39.8930   43.8060   17.9740    H  727  MOF        0.162000
   3352  _H3       39.8930   43.8060   43.8060    H  728  MOF        0.162000
   3353  _H3       11.7720    7.8580    7.8580    H  729  MOF        0.162000
   3354  _H3       11.7720    7.8580   33.6900    H  730  MOF        0.162000
   3355  _H3       11.7720   33.6900    7.8580    H  731  MOF        0.162000
   3356  _H3       11.7720   33.6900   33.6900    H  732  MOF        0.162000
   3357  _H3       37.6040    7.8580    7.8580    H  733  MOF        0.162000
   3358  _H3       37.6040    7.8580   33.6900    H  734  MOF        0.162000
   3359  _H3       37.6040   33.6900    7.8580    H  735  MOF        0.162000
   3360  _H3       37.6040   33.6900   33.6900    H  736  MOF        0.162000
   3361  _H3       11.7720    7.8580   17.9740    H  737  MOF        0.162000
   3362  _H3       11.7720    7.8580   43.8060    H  738  MOF        0.162000
   3363  _H3       11.7720   33.6900   17.9740    H  739  MOF        0.162000
   3364  _H3       11.7720   33.6900   43.8060    H  740  MOF        0.162000
   3365  _H3       37.6040    7.8580   17.9740    H  741  MOF        0.162000
   3366  _H3       37.6040    7.8580   43.8060    H  742  MOF        0.162000
   3367  _H3       37.6040   33.6900   17.9740    H  743  MOF        0.162000
   3368  _H3       37.6040   33.6900   43.8060    H  744  MOF        0.162000
   3369  _H3       14.0610   17.9740    7.8580    H  745  MOF        0.162000
   3370  _H3       14.0610   17.9740   33.6900    H  746  MOF        0.162000
   3371  _H3       14.0610   43.8060    7.8580    H  747  MOF        0.162000
   3372  _H3       14.0610   43.8060   33.6900    H  748  MOF        0.162000
   3373  _H3       39.8930   17.9740    7.8580    H  749  MOF        0.162000
   3374  _H3       39.8930   17.9740   33.6900    H  750  MOF        0.162000
   3375  _H3       39.8930   43.8060    7.8580    H  751  MOF        0.162000
   3376  _H3       39.8930   43.8060   33.6900    H  752  MOF        0.162000
   3377  _H3       11.7720   17.9740    7.8580    H  753  MOF        0.162000
   3378  _H3       11.7720   17.9740   33.6900    H  754  MOF        0.162000
   3379  _H3       11.7720   43.8060    7.8580    H  755  MOF        0.162000
   3380  _H3       11.7720   43.8060   33.6900    H  756  MOF        0.162000
   3381  _H3       37.6040   17.9740    7.8580    H  757  MOF        0.162000
   3382  _H3       37.6040   17.9740   33.6900    H  758  MOF        0.162000
   3383  _H3       37.6040   43.8060    7.8580    H  759  MOF        0.162000
   3384  _H3       37.6040   43.8060   33.6900    H  760  MOF        0.162000
   3385  _H3       14.0610    7.8580   17.9740    H  761  MOF        0.162000
   3386  _H3       14.0610    7.8580   43.8060    H  762  MOF        0.162000
   3387  _H3       14.0610   33.6900   17.9740    H  763  MOF        0.162000
   3388  _H3       14.0610   33.6900   43.8060    H  764  MOF        0.162000
   3389  _H3       39.8930    7.8580   17.9740    H  765  MOF        0.162000
   3390  _H3       39.8930    7.8580   43.8060    H  766  MOF        0.162000
   3391  _H3       39.8930   33.6900   17.9740    H  767  MOF        0.162000
   3392  _H3       39.8930   33.6900   43.8060    H  768  MOF        0.162000

@<TRIPOS>SUBSTRUCTURE
1 ****        1 TEMP                        0 ****  **** 0 ROOT
