@<TRIPOS>MOLECULE
CO2
    3    2    1    0    0
SMALL
NO_CHARGES
****
Energy = 0

@<TRIPOS>ATOM
      1  C          0.0000    0.0000    0.0000    C    1  CO2        0.000000
      2  O         -1.1600    0.0000    0.0000    O    1  CO2        0.000000
      3  O          1.1600    0.0000    0.0000    O    1  CO2        0.000000
@<TRIPOS>BOND
    1     1     2  1
    2     1     3  1

@<TRIPOS>SUBSTRUCTURE
1 ****        1 TEMP                        0 ****  **** 0 ROOT

#generated by VMD
