@<TRIPOS>MOLECULE
C6A
   6   5    1    0    0
SMALL
NO_CHARGES
****
Energy = 0

@<TRIPOS>ATOM
      1  _CH3       0.0000    0.0000    0.0000    C    1  C6A        0.000000
      2  _CH2       1.5000    0.0000    0.0000    C    1  C6A        0.000000
      3  _CH2       2.0519    1.2751   -0.5654    C    1  C6A        0.000000
      4  _CH2       3.5518    1.2707   -0.5752    C    1  C6A        0.000000
      5  _CH2       4.1124    1.1307    0.8090    C    1  C6A        0.000000
      6  _CH3       4.8200    2.4002    1.1801    C    1  C6A        0.000000
@<TRIPOS>BOND
    1     1     2  1
    2     2     3  1
    3     3     4  1
    4     4     5  1
    5     5     6  1

@<TRIPOS>SUBSTRUCTURE
1 ****        1 TEMP                        0 ****  **** 0 ROOT

#generated by VMD
